 39                                    
                                       
  C   -1.562842    4.021428     0.65592
  C    -2.17643     2.78492    0.736896
  C   -1.686527    1.731685   -0.025891
  C   -0.612041    2.006761   -0.871069
  N   -0.024742    3.190565   -0.961774
  C   -0.478833    4.190479    -0.20187
  H   -1.919451    4.854502    1.247015
  H   -3.032017    2.623246    1.379963
  C   -2.339034    0.400894    0.024917
  H   -0.218025    1.230315   -1.519048
  C    0.232487    5.504375     -0.3303
  C   -2.358188   -1.994078   -0.047892
  C   -4.357366   -0.702524    0.088195
  C   -3.736983   -1.940046   -0.009007
  H    -1.85039   -2.950009   -0.071947
  H   -5.437256   -0.634849    0.153643
  N   -3.672014    0.427347    0.097445
  C   -0.145839   -0.894739    0.036158
  C     0.54244   -1.662113   -0.901776
  C    0.567822   -0.239219    1.040565
  C    1.925259   -1.754042   -0.860146
  H   -0.008961   -2.176143   -1.679439
  C    1.947067   -0.329906    1.095128
  H    0.034093     0.34117    1.782271
  C    2.614187   -1.077845    0.134161
  H    2.470912   -2.351797   -1.578652
  H    2.509989    0.154742    1.882256
  S    4.383983   -1.160471    0.174613
  O    4.808418   -0.928536    1.527297
  O    4.789211   -2.346026    -0.52868
  C    4.879376    0.238875   -0.793749
  H    5.968569    0.233658   -0.786577
  H    4.500523    0.119482   -1.805914
  H    4.495345    1.143994   -0.329187
 Cl   -4.682286   -3.381526   -0.049167
  C   -1.626628   -0.811363   -0.011943
  H   -0.211213     6.26589    0.308306
  H    1.283094    5.385578   -0.063095
  H     0.19863    5.843551   -1.365952
