 22                                    
                                       
  C   -1.696151   -1.142262   -0.002679
  C   -0.322349   -0.958799    -0.00243
  C    0.192462    0.337681   -0.000916
  C   -0.689643    1.415763   -0.000159
  C   -2.058576    1.208396    -0.00048
  C   -2.590586   -0.075962   -0.001314
  H   -2.082852   -2.155267   -0.004328
  H    0.347374   -1.802586   -0.003773
  N    1.568939    0.628711   -0.001081
  H   -0.299304     2.42754    0.000181
  H   -2.723329    2.064076   -0.000321
  C   -4.075215   -0.314805    0.003219
  C    3.976519    0.465457     0.00084
  C    2.633419   -0.234077    0.000817
  O    2.528476    -1.43926    0.002273
  H     4.08042    1.096424   -0.882947
  H    4.757326   -0.288323    0.000953
  H    4.080202    1.096335    0.884725
  H    1.796396    1.609891   -0.001813
  H   -4.383955   -0.842877    0.907243
  H   -4.376783   -0.924823   -0.849831
  H   -4.625147    0.624353   -0.042086
