 31                                    
                                       
  C   -3.437227    0.716163   -0.000852
  C   -2.075524    0.980955   -0.000364
  C   -1.179238   -0.101809    0.000442
  C   -1.659927   -1.409966    0.000713
  C   -3.028539   -1.638695    0.000163
  C   -3.924389   -0.583167    -0.00061
  H   -4.128157    1.550916   -0.001473
  C   -1.575111    2.399677   -0.000746
  N    0.193177    0.204503    0.001085
  H   -0.963304   -2.231358    0.001289
  H   -3.389575   -2.658971    0.000366
  H   -4.990752   -0.764533   -0.001033
  O    1.185257    -1.84438   -0.001693
  C    1.275293   -0.637179   -0.000108
  C    2.633538    0.086413     0.00041
  C    2.760343    0.956614    1.257265
  C    3.734847   -0.969113    0.000657
  C    2.760709    0.956457    -1.25653
  H    2.620856    0.360088    2.160073
  H    2.036927    1.774379    1.276067
  H    3.756831    1.400693    1.292491
  H    3.660851    -1.60821    0.879584
  H    4.709731   -0.478782    0.000737
  H    3.661043   -1.608401   -0.878129
  H    3.756889    1.401283   -1.291115
  H    2.036563    1.773554   -1.276003
  H    2.622339    0.359586   -2.159282
  H    0.411834    1.185415    0.002264
  H   -0.968299    2.616615    0.883697
  H    -2.40977    3.097544   -0.001736
  H   -0.966959      2.6156   -0.884505
