 28                                    
                                       
  C    -3.49883   -1.165553    0.000239
  C   -2.123068   -1.306612    0.000167
  C   -1.292391   -0.184053    0.000017
  C   -1.861654    1.088868    -0.00006
  C   -3.244627     1.21267    0.000013
  C   -4.070944    0.099615    0.000162
  H   -4.124671   -2.048516    0.000355
  H   -1.681638    -2.29713    0.000227
  N    0.093453   -0.416762   -0.000047
  H   -1.228346    1.959872   -0.000177
  H   -3.677398    2.204907   -0.000048
  H   -5.146432    0.214123    0.000218
  O    0.953859    1.686246   -0.000213
  C     1.12318    0.487298   -0.000212
  C    2.524856   -0.145978   -0.000064
  C    3.554511    0.979752   -0.000031
  C    2.708625     -1.0047     1.25741
  C    2.708867   -1.004839   -1.257408
  H    3.439048     1.61273    0.878823
  H    3.439222    1.612624   -0.878985
  H    4.559191    0.553837    0.000093
  H    2.532766   -0.416805    2.159518
  H    3.731582   -1.383859    1.291709
  H    2.039349   -1.866821    1.278916
  H    2.533096   -0.417068   -2.159614
  H     2.03967   -1.867021   -1.278913
  H    3.731857   -1.383923    -1.29151
  H    0.356515   -1.388392    0.000038
