 28                                    
                                       
  C   -4.337767   -0.384176    -0.77565
  C   -3.375302     0.61234    -0.78302
  C   -2.274865    0.533294    0.068633
  C   -2.157728    -0.55582    0.932293
  C   -3.111317   -1.563042    0.912542
  C   -4.204958   -1.482861    0.062515
  H   -5.189121   -0.307193   -1.439279
  H    -3.46447    1.458186   -1.453415
  N   -1.332769    1.578462    0.073112
  H   -1.333973   -0.595193    1.633373
  H   -3.007862   -2.403927    1.585936
  H   -4.951544   -2.265368    0.058816
  O    0.701303    2.546115    0.148717
  C    0.052342    1.526482    0.062516
  N    0.579674    0.269569   -0.074627
  C    1.935849   -0.095423   -0.085542
  C    2.228374    -1.42031   -0.414262
  C    3.536723   -1.869516   -0.427293
  C    4.575956   -1.004389   -0.113444
  C    4.281979    0.310831    0.212823
  C    2.975002    0.777955    0.231616
  H   -0.068398    -0.47282   -0.284456
  H    1.420141   -2.099027   -0.662942
  H    3.742656   -2.900084    -0.68588
  H    5.600119   -1.351823   -0.124701
  H    5.082377    0.996678    0.459405
  H    2.757211    1.803356    0.480384
  H   -1.671625    2.519884   -0.048746
