 19                                    
                                       
  C   -2.457955    1.016001    0.215702
  C   -1.085911    1.195397    0.146668
  C   -0.246391    0.103965   -0.050231
  C   -0.794809   -1.166118   -0.202201
  C   -2.169617   -1.343984   -0.142383
  C   -3.001584   -0.254469    0.073421
  H   -3.106058    1.867543    0.376758
  H   -0.639136    2.176485    0.238955
  C    1.229378    0.370711   -0.111351
  H   -0.158343   -2.018591   -0.405666
  H    -2.59123   -2.332013   -0.272944
  H   -4.073742    -0.39425    0.122214
  O    1.670883    1.466757   -0.395408
  N    2.043045   -0.680886    0.165092
  C    3.478418   -0.494128    0.196574
  H    1.647481   -1.494217    0.602032
  H     3.96096   -1.464734     0.28451
  H    3.783266    0.141671    1.030337
  H    3.799246      -0.014   -0.725765
