 22                                    
                                       
  C   -2.690659   -0.871051    0.529441
  C   -1.336259   -1.161367    0.474368
  C   -0.447356   -0.244727   -0.076163
  C   -0.928677    0.948956   -0.604395
  C   -2.286587    1.230124   -0.568212
  C   -3.167359    0.324719    0.008018
  H   -3.377385   -1.582179    0.969687
  H   -0.950651   -2.102731    0.843573
  C     0.99767   -0.641503   -0.179356
  H   -0.240277        1.65   -1.060779
  H   -2.657769    2.153484   -0.993405
  H   -4.226035    0.547143    0.042302
  O    1.292981   -1.777613   -0.500642
  N    1.944731     0.31644    0.043218
  C    1.748902    1.505287    0.849861
  C    3.329957   -0.042543    -0.19148
  H     1.97146    2.408785     0.27619
  H    2.422755    1.474524      1.7108
  H    0.730176    1.562974    1.218716
  H    3.881386    0.852573   -0.481694
  H    3.381967   -0.783119   -0.983579
  H    3.789614   -0.462994    0.708314
