 29                                    
                                       
  C   -3.361407     0.34332    1.129362
  C   -2.067629     0.81113    0.955795
  C   -1.298547    0.358221   -0.110024
  C   -1.845754   -0.538586   -1.022353
  C   -3.147046   -0.990245   -0.860295
  C   -3.902429   -0.557508    0.221648
  H   -3.573437   -1.676606   -1.580251
  H   -1.642136    1.540493    1.632826
  C    0.069171     0.95156   -0.296924
  H   -1.254144   -0.867762   -1.868233
  H   -3.952618    0.689825    1.966945
  H   -4.915696   -0.915152    0.351401
  C    1.156207   -1.293007   -0.308909
  C    2.386655    0.713959   -0.942413
  C    2.038972   -1.475863    0.925528
  H    1.579161   -1.846557    -1.15411
  H    0.159901   -1.680732   -0.121185
  C    3.286504    0.607659    0.284176
  H    2.835761    0.171025   -1.780624
  O    0.229787    2.149615   -0.153067
  C     3.41633    -0.85121     0.71704
  H    2.125665   -2.540398    1.152565
  H    1.543687   -0.999431    1.777394
  H    4.266196    1.033833    0.060671
  H    2.844485    1.202527    1.088186
  H    4.011624    -0.93194    1.627897
  H    3.948544   -1.409752   -0.061017
  N    1.080912    0.115541   -0.684066
  H    2.232155    1.748336   -1.235257
