 25                                    
                                       
  C    1.874805     1.40941   -0.241772
  C    0.497707    1.335702   -0.231057
  C   -0.160311    0.120377   -0.021274
  C    0.615085   -1.017872    0.166925
  C    2.001607   -0.960225    0.165273
  C    2.638468    0.260389   -0.038263
  H    2.387694    2.345884   -0.414957
  H   -0.071111    2.237642   -0.416482
  C   -1.638729    0.021333   -0.002764
  H     0.11481   -1.964901    0.316313
  H    2.568994   -1.865845    0.322388
  O    3.982759    0.427912   -0.061015
  C   -3.821128    0.981198    0.264751
  H   -2.002207    2.086556    0.501483
  C   -3.486003   -1.314385   -0.237601
  C   -4.363394   -0.266758    0.001036
  H    -4.46133    1.828794    0.474342
  H   -3.865113   -2.311131    -0.43797
  H   -5.431909   -0.430139   -0.012797
  N   -2.166139   -1.183054   -0.242246
  C   -2.446195    1.129175    0.268659
  C    4.790746   -0.711683    0.127428
  H     5.81978    -0.36751    0.069976
  H    4.613157   -1.164932    1.106365
  H    4.612178   -1.456302   -0.652862
