 37                                    
                                       
  C       2.365    0.338336    0.791943
  C    0.984067    0.440878    0.791418
  C    0.239235   -0.407132   -0.018166
  C    0.853726    -1.36906   -0.809981
  C    2.233217   -1.476062   -0.800834
  C    2.976534   -0.620288   -0.001025
  H    2.968317    0.999487    1.398953
  H    0.488901    1.172825     1.41393
  N   -1.179005   -0.320957   -0.035378
  H    0.243551   -2.019998   -1.419876
  H    2.736099   -2.202027    -1.42527
  S    4.739897   -0.756695    0.008472
  N    5.047148   -1.867789    1.179443
  H    5.456691    -2.71571    0.811464
  H    5.544206   -1.474003     1.96674
  O    5.129685   -1.338674   -1.238813
  O    5.262878     0.49456    0.464504
  C   -1.978933    0.787423    0.009348
  C   -3.273334    0.320894    0.051293
  C   -3.142324   -1.074959    0.010688
  H   -4.175244    0.907172    0.054394
  N   -1.884964   -1.457348   -0.042455
  C   -4.231852   -2.099483    0.049981
  F   -5.418018   -1.522262   -0.177198
  F    -4.06111   -3.052775   -0.864868
  F   -4.308272    -2.70308    1.240503
  C   -1.503956    2.176246   -0.072283
  C   -2.040168    3.133965    0.785504
  C   -0.560066    2.562708   -1.023768
  C   -1.632158    4.457098    0.700015
  H   -2.769663    2.832943    1.527026
  C    -0.15129    3.883755    -1.10349
  H   -0.151109    1.826956    -1.70505
  C   -0.684669    4.833409   -0.241155
  H   -2.051938    5.192932    1.373162
  H     0.58109    4.174151   -1.845068
  H   -0.363586    5.864659   -0.305625
