 33                                    
                                       
  C    3.529392   -0.077897    -0.35264
  C    2.372551    0.641245   -0.098442
  C    1.269678    0.018804    0.474027
  C    1.338251   -1.336119    0.792363
  C    2.489023   -2.061075    0.546786
  C    3.590283   -1.429989   -0.029881
  H    4.386009    0.404177   -0.803393
  H    2.332818    1.689735   -0.361177
  C    0.004399    0.789762    0.823011
  H    0.480049   -1.830424    1.230895
  H    2.541943   -3.112372    0.794328
  C    4.787902   -2.177739   -0.292519
  C    0.137223    3.309501    0.844233
  H    0.233504    3.409517     1.91408
  C   -0.014041    3.611446   -1.209846
  H   -0.063715    4.098432    -2.16992
  N   -0.092491    2.302848   -1.092439
  N    0.130157    4.279831   -0.039556
  C   -1.269797    0.044781    0.473687
  C    -2.26096   -0.117013    1.432861
  C   -1.458223   -0.470504   -0.806731
  C   -3.436171   -0.785556    1.127685
  H   -2.117817    0.281129    2.430262
  C   -2.627991   -1.134526   -1.123799
  H   -0.687571   -0.338286   -1.554571
  C   -3.618883   -1.294179   -0.154075
  H   -4.208557   -0.915693    1.873085
  H   -2.783563   -1.533029   -2.116921
  H    0.007847    0.962009    1.902526
  N     0.00087    2.120218    0.234229
  N    5.744747   -2.775809   -0.500472
  C   -4.832173   -1.991106   -0.479054
  N    -5.80096   -2.549118    -0.73679
