 24                                    
                                       
  C   -1.306068   -1.167743   -0.275862
  C    0.077477   -1.185874   -0.271365
  C    0.803377    -0.02224    -0.01698
  C    0.112995    1.164197    0.220607
  C   -1.271768    1.187002    0.223436
  C   -1.978884    0.019923   -0.024001
  H   -1.864492   -2.070293   -0.487706
  H     0.59231   -2.110171   -0.497364
  C    2.288866   -0.022319   -0.004302
  H     0.67916    2.067563    0.399244
  H   -1.802361    2.110231     0.41201
  C   -3.479981    0.011614    0.008485
  H    2.509791   -2.101866    0.519473
  C    4.213759    1.188244    -0.25963
  C    5.019423    0.086033   -0.009638
  H     4.98443   -2.005072    0.488936
  H    4.657034    2.154935   -0.473259
  H    6.096408    0.178663   -0.026806
  N    2.888183    1.143262   -0.257106
  C    3.017079    -1.17885    0.276585
  C    4.399662   -1.120785    0.270176
  F   -3.946158   -0.512436    1.152471
  F   -3.994803   -0.724608   -0.984932
  F   -3.997392     1.23904   -0.096412
