 24                                    
                                       
  C    2.824132    0.778357     0.16102
  C    1.439462    0.920044    0.193666
  C    0.652608   -0.217561   -0.044179
  C    1.268649   -1.441316   -0.302295
  C    2.648557   -1.559647   -0.340353
  C    3.430709   -0.439887   -0.106476
  H    3.439624    1.648515    0.356725
  C    0.845067    2.266677    0.504663
  C   -0.832792    -0.16646   -0.028328
  H    0.650134   -2.308388   -0.500727
  H    3.106259   -2.516422   -0.554447
  H     4.51046   -0.512466   -0.128579
  C   -2.947517   -1.108314    0.597661
  H   -1.047842   -1.943557    1.162427
  C   -2.756718    0.875913   -0.696433
  C   -3.564294    -0.07041   -0.082886
  H   -3.534459   -1.864441     1.10348
  H   -3.199279    1.706721   -1.235842
  H   -4.641113    0.011563   -0.135018
  N   -1.429273    0.838626   -0.673501
  C   -1.565321   -1.158864    0.627213
  H    0.446963    2.733264   -0.395733
  H    0.015631    2.184037    1.207107
  H    1.603282    2.919595    0.935478
