 24                                    
                                       
  C    -2.91059   -1.148187    0.592512
  C   -1.525387   -1.169755    0.576549
  C   -0.807051   -0.146868   -0.040765
  C   -1.506706    0.882442    -0.66593
  C   -2.894339    0.897805   -0.662426
  C   -3.599866   -0.112736   -0.025703
  H   -3.455144   -1.944022    1.084103
  H   -0.979998   -1.983545    1.035716
  C    0.679334   -0.211836   -0.055506
  H   -0.965598    1.663194    -1.18415
  H   -3.424002    1.697588   -1.163703
  H   -4.682047   -0.098405   -0.018016
  C    1.493003    0.905672    0.198087
  C    2.868371    0.710353    0.138264
  C    2.500397   -1.579649   -0.349653
  C     3.39137   -0.536427   -0.151267
  H    3.529383     1.54652    0.336769
  H    2.857243   -2.583181   -0.555023
  H    4.458558    -0.70268    -0.20377
  N    1.185853   -1.424137   -0.299359
  C    0.958291    2.262171     0.57224
  H    0.024573    2.187438    1.127228
  H    1.686817    2.790231    1.187019
  H    0.768291     2.87791    -0.30908
