 20                                    
                                       
  C    2.794612    1.201729   -0.000363
  C    1.408888    1.203649   -0.000313
  C    0.705611   -0.000003   -0.000013
  C    1.408895   -1.203652    0.000235
  C    2.794617   -1.201727    0.000203
  C    3.491039    0.000004   -0.000101
  H    3.333507    2.140449     -0.0006
  H    0.855396    2.132422   -0.000494
  C   -0.778339   -0.000012    0.000078
  H    0.855408   -2.132433    0.000455
  H    3.333523   -2.140446    0.000421
  H    4.573687    0.000002   -0.000132
  C   -2.721084    1.173931    0.000209
  C   -2.721107   -1.173925    -0.00012
  C   -3.456214   -0.000002    0.000177
  H   -3.211931    2.142039    0.000369
  H   -3.211936   -2.142038   -0.000287
  H   -4.536315    0.000017    0.000382
  N   -1.396631   -1.184141   -0.000188
  N    -1.39663    1.184146    0.000179
