 25                                    
                                       
  C    3.744519    1.198914    0.446691
  C    2.373404     1.03231     0.37884
  C    1.838639   -0.171173   -0.082775
  C    2.694733   -1.197703   -0.471582
  C    4.070467   -1.029758   -0.402659
  C    4.595737    0.168783     0.05655
  H    4.157377    2.132986    0.804976
  H    1.694736     1.82033    0.677521
  C    0.386079   -0.377247   -0.165748
  H      2.2779   -2.131883   -0.830319
  H    4.730085   -1.831792    -0.70675
  H    5.668259    0.303515    0.111958
  H    0.061989   -1.360199   -0.530159
  N   -0.450357    0.521308    0.145768
  C   -1.825183    0.231375    0.083991
  C    -4.04152     0.96728   -0.507862
  C   -2.680394    1.207304   -0.425892
  C   -4.571172   -0.234733   -0.053472
  C   -3.727031   -1.195173    0.485119
  C   -2.360296   -0.968215    0.554182
  H   -2.254195    2.143593   -0.761387
  H   -4.695099     1.72577   -0.919063
  H   -5.636768   -0.414397   -0.105431
  H   -4.134149   -2.124481    0.862556
  H   -1.705538   -1.704381    1.003415
