 14                                    
                                       
  C    1.723819    1.057569   -0.000066
  C    0.354585    1.282716    -0.00004
  C   -0.527096    0.208496   -0.000031
  C   -0.042991   -1.097724   -0.000036
  C    1.321853   -1.321846   -0.000057
  C    2.203923   -0.244415   -0.000074
  H    2.413384    1.891198   -0.000079
  H   -0.035912    2.294378   -0.000031
  C   -1.986525    0.465044   -0.000033
  H   -0.752894    -1.91505   -0.000028
  H    1.705981   -2.333467    -0.00006
  H    3.271444   -0.423914   -0.000094
  O   -2.827056   -0.393459    0.000252
  H   -2.270967    1.535487    0.000301
