 14                                    
                                       
  C   -0.052366    1.287848   -0.000192
  C    1.331925    1.364313   -0.000388
  C    2.101456    0.207528   -0.000337
  C    1.482995   -1.040505   -0.000081
  C    0.103969   -1.131912    0.000116
  C   -0.649859    0.036895    0.000059
  H   -0.661043    2.180834   -0.000234
  H    1.818246    2.333272    -0.00059
  C    3.578932    0.308506   -0.000554
  H    2.101401   -1.929068   -0.000041
  H   -0.390047    -2.09334    0.000313
 Br   -2.536978   -0.084011    0.000324
  H    3.976142    1.342105   -0.000522
  O    4.320904   -0.636183   -0.000252
