 14                                    
                                       
  C    0.481165    1.304406   -0.000098
  C    1.867195    1.367419   -0.000146
  C    2.624945    0.203717   -0.000068
  C    1.995295   -1.037947    0.000047
  C    0.614874   -1.114854    0.000098
  C   -0.132887    0.059953    0.000029
  H   -0.111722    2.208196   -0.000161
  H    2.363107    2.331812   -0.000245
  C    4.104494    0.291826   -0.000041
  H    2.604741   -1.932891    0.000102
  H    0.118121   -2.074951    0.000193
  I   -2.217227   -0.057003    0.000133
  H     4.51156    1.321354   -0.000777
  O    4.837096   -0.659937   -0.000639
