 27                                    
                                       
  C    -4.18313    0.786901    0.397805
  C     -2.8227     1.05705    0.371554
  C   -1.911472    0.074354   -0.011596
  C   -2.390348   -1.187371   -0.363331
  C   -3.749063   -1.453952   -0.345238
  C   -4.650786   -0.467429    0.034503
  H   -4.877688    1.556769    0.707956
  H   -2.472043    2.033377    0.680155
  C    -0.44998    0.339431   -0.041659
  H   -1.678195   -1.949222   -0.649292
  H   -4.107854   -2.435003   -0.628669
  H   -5.712377   -0.677361    0.050967
  C    0.040925    1.663266   -0.226118
  C    1.692525   -0.492869    0.069793
  C    1.384091    1.879286   -0.249743
  H   -0.650995    2.479953   -0.373518
  C    2.544329   -1.613744    0.220893
  C    2.269928     0.78936   -0.092994
  H     1.78633    2.874848   -0.397919
  C    3.901208   -1.455508    0.208919
  H    2.081844   -2.583787    0.346143
  C    3.677002    0.923702   -0.102515
  C    4.476023   -0.174747    0.045705
  H    4.546937   -2.316243    0.325731
  H    4.107568    1.909989   -0.229253
  H    5.552916   -0.069285    0.038957
  N     0.35032   -0.690058    0.090411
