 20                                    
                                       
  C    2.633545    1.181593    0.000025
  C    1.250435    1.228884    0.000105
  C     0.51567    0.045256    0.000072
  C    1.170876   -1.181929   -0.000061
  C    2.557975   -1.223449    -0.00014
  C    3.289339   -0.044679   -0.000101
  H    3.204232    2.101003    0.000063
  H    0.718454    2.170918    0.000209
  C   -0.954454    0.114305    0.000176
  H    0.590987    -2.09443   -0.000082
  H    3.067411   -2.178132   -0.000239
  H    4.371231   -0.079137    -0.00016
  N   -1.647846    1.171409   -0.000196
  C    -3.05171    0.763793    0.000224
  C   -3.006984   -0.778501   -0.000466
  O   -1.604197   -1.079924    0.000428
  H   -3.553887    1.168559   -0.879239
  H   -3.553029    1.167845    0.880523
  H   -3.451855   -1.223883   -0.889227
  H   -3.453204   -1.224867    0.887104
