 21                                    
                                       
  C    1.754773    -1.04418    -0.00042
  C    0.378589   -1.139176   -0.000355
  C   -0.395497     0.02293   -0.000019
  C    0.212562    1.274698    0.000252
  C    1.593692    1.353582    0.000189
  C    2.373708    0.203253   -0.000152
  H    2.372918   -1.932673   -0.000687
  H   -0.086611   -2.113786   -0.000571
  N   -1.803774   -0.057405    0.000057
  H   -0.405755    2.158963    0.000511
  H    2.074221    2.325432    0.000411
  C    3.847445    0.308573   -0.000273
  C    -2.58669   -1.170108     0.00015
  C   -3.793802      0.6618    0.000322
  N     -2.5422    1.066029    0.000089
  H   -2.172941   -2.161733    0.000119
  H   -4.770383   -1.358575    0.000175
  H    -4.58878    1.389684    0.000431
  C   -3.886166   -0.746654    0.000153
  O    4.595928    -0.63251   -0.000128
  H    4.240043     1.34409    0.000524
