21                                     
                                       
C    -2.839052   1.159591    -0.249668 
C    -1.452406   1.180089    -0.256225 
C    -0.723792   0.018488    -0.005299 
C    -1.413546   -1.167809   0.241537  
C    -2.798743   -1.18649    0.254236  
C    -3.516756   -0.022855   0.010619  
H    -3.390609   2.067659    -0.45595  
H    -0.937854   2.104133    -0.486544 
C    0.761067    0.019981    -0.00195  
H    -0.844833   -2.069812   0.420982  
H    -3.321198   -2.112993   0.454715  
H    -4.5989     -0.038862   0.017578  
N    1.365019    -1.142572   -0.260785 
C    2.872311    1.125225    0.260649  
H    0.980546    2.098064    0.525418  
C    2.691028    -1.182522   -0.270874 
C    3.495383    -0.079155   -0.024941 
H    3.45524     2.011399    0.477232  
H    3.136064    -2.147781   -0.488306 
H    4.572508    -0.168557   -0.049257 
C    1.490159    1.177916    0.276853  
