35                                     
                                       
C    4.9748      0.452713    0.418657  
C    3.628273    0.781887    0.411076  
C    2.69196     -0.176559   0.042325  
C    3.093764    -1.462635   -0.297094 
C    4.442079    -1.780075   -0.275388 
C    5.388166    -0.826452   0.075729  
H    5.701655    1.200397    0.707362  
H    3.311117    1.770853    0.711555  
N    1.314269    0.151641    0.010833  
H    2.345442    -2.192612   -0.568054 
H    4.754502    -2.78171    -0.540024 
H    6.439548    -1.080254   0.088401  
N    0.386512    -0.81917    0.053391  
C    -1.603579   2.257326    -0.237998 
H    -2.62514    1.926309    -0.463246 
C    -0.604119   1.208554    -0.070874 
C    0.760527    1.379092    -0.066577 
C    -0.781055   -0.199879   0.00981   
C    -2.033578   -0.96875    0.055226  
C    -3.135644   -0.496696   0.766317  
C    -4.311871   -1.230867   0.809225  
C    -4.397986   -2.447014   0.14681   
C    -3.299567   -2.929339   -0.553774 
C    -2.125108   -2.196142   -0.600099 
H    1.340345    2.280499    -0.156354 
H    -3.059574   0.434291    1.314222  
H    -5.158513   -0.856861   1.370164  
H    -5.315348   -3.02012    0.180653  
H    -3.360564   -3.8794     -1.068687 
H    -1.26558    -2.56252    -1.145839 
N    -1.305508   3.482839    -0.157236 
C    -2.356621   4.448637    -0.379039 
H    -2.082459   5.090248    -1.218379 
H    -3.331014   3.989477    -0.585328 
H    -2.443954   5.091416    0.498632  
