39                                     
                                       
C    0.522862    3.331053    0.981959  
C    0.880816    1.995559    0.952584  
C    1.879489    1.579625    0.080035  
C    2.477605    2.557973    -0.714169 
N    2.131745    3.836444    -0.700672 
C    1.165775    4.229126    0.133555  
H    -0.246135   3.679889    1.658069  
H    0.394466    1.287201    1.612069  
C    2.354644    0.177906    -0.002073 
H    3.275177    2.274362    -1.392058 
C    2.065341    -2.200699   0.043995  
C    0.815413    5.686834    0.112342  
N    3.677412    0.03168     -0.108429 
C    3.438063    -2.325315   -0.032164 
H    1.439251    -3.083571   0.072792  
H    5.288361    -1.248163   -0.225546 
C    4.210751    -1.177361   -0.131783 
C    0.011873    -0.828844   0.034574  
C    -0.74026    -1.524597   0.98005   
C    -0.643913   -0.062057   -0.93012  
C    -2.125006   -1.453683   0.973086  
H    -0.2342     -2.103914   1.742505  
C    -2.025363   0.012964    -0.947883 
H    -0.063664   0.485108    -1.661975 
C    -2.754016   -0.686113   0.0056    
H    -2.717412   -1.963065   1.722056  
H    -2.542964   0.622335    -1.677452 
S    -4.523674   -0.591586   -0.012116 
O    -4.997158   -0.924929   1.302643  
O    -4.894885   0.649003    -0.633829 
C    -4.998344   -1.904078   -1.10474  
H    -4.575091   -1.715432   -2.088473 
H    -4.650893   -2.848934   -0.693831 
H    -6.086594   -1.878161   -1.143187 
Cl   4.187575    -3.878844   -0.032592 
C    1.492297    -0.933228   0.040475  
H    0.490643    5.974355    -0.888096 
H    0.025488    5.921617    0.823261  
H    1.697673    6.282248    0.349044  
