28                                     
                                       
C    -0.11498    0.329992    8.5e-05   
C    -1.165831   -0.629064   0.000116  
C    -2.495288   -0.167288   5.8e-05   
C    -2.76606    1.201323    2.2e-05   
C    -1.749035   2.129005    6e-05     
C    -0.413795   1.714958    7.8e-05   
C    1.246681    -0.090695   3.3e-05   
C    -0.802295   -2.023116   0.000181  
C    -3.66169    -1.08149    2e-05     
H    -3.803645   1.508924    -3.7e-05  
H    -1.973192   3.188588    7.4e-05   
C    0.662838    2.663397    6.3e-05   
O    -4.804499   -0.699545   -0.000419 
H    3.138788    -2.921997   -0.000105 
C    2.902158    -1.864872   -8.5e-05  
C    1.564953    -1.469079   2.2e-05   
C    0.488906    -2.415904   0.000137  
C    2.290718    0.867023    -3.1e-05  
C    3.61624     0.431115    -0.000132 
C    3.917985    -0.921555   -0.000167 
C    1.950731    2.260761    6e-06     
H    -3.454461   -2.163026   0.000468  
H    -1.572473   -2.779355   0.000298  
H    0.735555    -3.47097    0.00021   
H    4.411451    1.166732    -0.000185 
H    4.951268    -1.242714   -0.000257 
H    0.413393    3.717433    9.6e-05   
H    2.755882    2.985679    -1.2e-05  
