32                                     
                                       
C    0.320037    0.416213    -8e-06    
C    -0.837742   -0.412194   -1.5e-05  
C    -2.10811    0.194596    -1.5e-05  
C    -2.209602   1.587284    -1.6e-05  
C    -1.0899     2.388425    -1.4e-05  
C    0.188743    1.825482    -7e-06    
C    1.623709    -0.161632   -1e-06    
C    -0.635874   -1.839074   -2.6e-05  
C    -3.354904   -0.595017   -2e-06    
H    -3.201118   2.019377    -1.7e-05  
H    -1.191193   3.467021    -1.8e-05  
C    1.36873     2.641252    1e-06     
N    -4.494986   -0.051073   1.2e-05   
C    3.06078     -2.118095   5e-06     
C    1.77938     -1.568145   -5e-06    
C    0.599247    -2.38215    -2.1e-05  
C    2.773598    0.667227    1e-05     
C    4.039098    0.078355    1.9e-05   
C    4.180283    -1.300063   1.7e-05   
C    2.600845    2.091408    1e-05     
H    -3.267811   -1.685413   2.3e-05   
H    -1.488609   -2.500927   -4.4e-05  
H    0.720079    -3.458962   -3.2e-05  
H    4.914889    0.716011    2.8e-05   
H    5.168973    -1.740073   2.6e-05   
H    1.243997    3.717415    1e-06     
H    3.485746    2.716463    1.8e-05   
H    3.171648    -3.195749   2e-06     
C    -5.656629   -0.906941   3.5e-05   
H    -6.265786   -0.681717   -0.877106 
H    -5.41031    -1.975798   2.8e-05   
H    -6.265751   -0.681719   0.8772    
