29                                     
                                       
C    2.720729    -1.515816   -0.692834 
C    1.49138     -0.873966   -0.668824 
C    1.363221    0.369692    -0.058368 
C    2.477346    0.97315     0.51355   
C    3.701544    0.322149    0.508199  
C    3.824772    -0.922511   -0.095161 
H    2.818503    -2.476441   -1.181579 
H    0.628472    -1.329166   -1.140694 
C    0.078844    1.148941    -0.097734 
H    2.370851    1.958719    0.947743  
H    4.563537    0.790505    0.96512   
H    4.782783    -1.425974   -0.108381 
O    0.103227    2.330902    -0.385062 
C    -2.347675   1.180827    -0.044801 
C    -2.192296   -1.705066   0.341107  
H    -1.565837   -0.42909    1.951048  
H    -0.224248   -1.177947   1.093722  
C    -3.378821   0.255142    -0.680347 
H    -2.709578   1.530963    0.931064  
C    -1.201482   -0.725779   0.957616  
C    -3.544261   -1.027808   0.129918  
H    -2.292795   -2.575964   0.991369  
H    -1.79885    -2.053448   -0.618549 
H    -4.330637   0.782339    -0.765647 
H    -3.049391   0.009406    -1.693745 
H    -4.240833   -1.706945   -0.363954 
H    -3.975442   -0.783349   1.106719  
N    -1.086649   0.472824    0.135933  
H    -2.155609   2.055683    -0.659202 
