18                                     
                                       
C    1.884557    -1.243896   -0.515058 
C    0.529918    -0.958245   -0.593516 
C    0.045992    0.252887    -0.109366 
C    0.923163    1.179105    0.44449   
C    2.273005    0.881295    0.544489  
C    2.754364    -0.329653   0.06411   
H    2.261882    -2.178677   -0.908172 
H    -0.14662    -1.665019   -1.056496 
C    -1.391565   0.64723     -0.257126 
H    0.533557    2.1298      0.784225  
H    2.952087    1.597713    0.987527  
H    3.810012    -0.557988   0.133134  
O    -1.716155   1.753769    -0.572957 
O    -2.339829   -0.292962   -0.068042 
C    -2.13073    -1.413406   0.78411   
H    -1.947306   -2.310607   0.193564  
H    -1.298983   -1.252491   1.468103  
H    -3.048976   -1.541085   1.353296  
