20                                     
                                       
C    1.94789     1.199424    0.011539  
C    0.563058    1.209315    -0.049267 
C    -0.11862    0.00323     -0.075442 
C    0.562436    -1.205172   -0.052535 
C    1.945405    -1.196925   0.008344  
C    2.657037    0.001545    0.042004  
H    2.48755     2.13845     0.030305  
H    0.011299    2.138891    -0.091183 
S    -1.882464   0.003446    -0.13882  
H    0.009621    -2.134064   -0.097225 
H    2.484758    -2.136437   0.024551  
C    4.159303    -0.005004   0.073729  
O    -2.296997   -1.236484   -0.722016 
N    -2.342976   -0.036463   1.442967  
H    -2.816984   0.811797    1.722496  
H    -2.851712   -0.881167   1.666749  
O    -2.296793   1.268078    -0.666438 
H    4.550572    0.934953    0.460177  
H    4.535604    -0.818132   0.694076  
H    4.560809    -0.145416   -0.932176 
