17                                    
                                      
C    -1.808178   1.272106    4e-06    
C    -0.423084   1.184059    1.9e-05  
C    0.200797    -0.060592   4e-06    
C    -0.576701   -1.217315   8e-06    
C    -1.957715   -1.129753   -1e-05   
C    -2.575169   0.11623     -1e-05   
H    -2.287629   2.242137    -8e-06   
H    0.166628    2.091423    2.1e-05  
C    1.693184    -0.20619    2e-05    
H    -0.072896   -2.174891   -6e-06   
H    -2.557176   -2.030711   -1.5e-05 
H    -3.65545    0.184822    -2.2e-05 
O    2.203824    -1.299874   5e-06    
C    2.538094    1.045164    0        
H    2.321457    1.652189    -0.88061 
H    2.321231    1.652485    0.880318 
H    3.585881    0.759288    7.8e-05  
