16                                     
                                       
C    -1.8408     1.222593    -0.134267 
C    -0.453865   1.187458    -0.151597 
C    0.215975    -0.025034   -0.017516 
C    -0.512098   -1.202101   0.121544  
C    -1.896579   -1.165134   0.148523  
C    -2.562512   0.047697    0.022385  
H    -2.357584   2.166195    -0.250257 
H    0.098218    2.105869    -0.307988 
C    1.712017    -0.137218   -0.03683  
H    0.030105    -2.134757   0.203849  
H    -2.458937   -2.0824     0.264124  
H    -3.644361   0.076163    0.038494  
O    2.27208     -1.178354   -0.300708 
N    2.402983    1.005672    0.243058  
H    1.960151    1.7725      0.716176  
H    3.402062    0.913991    0.326405  
