29                                     
                                       
C    -4.302415   0.466006    0.787572  
C    -2.94419    0.677605    0.970859  
C    -2.013033   -0.026019   0.214863  
C    -2.453865   -0.950223   -0.724888 
C    -3.81333    -1.166026   -0.90387  
C    -4.739854   -0.458109   -0.151451 
H    -5.018798   1.016935    1.382891  
H    -2.603433   1.392736    1.711499  
C    -0.548517   0.273182    0.385452  
H    -1.729307   -1.506545   -1.304483 
H    -4.149287   -1.891656   -1.633296 
H    -5.799049   -0.629099   -0.292269 
O    0.199394    -0.896538   0.059229  
C    1.5485      -0.761204   0.077268  
C    1.381656    1.696772    -0.303976 
H    -0.279411   1.19049     -1.53379  
C    2.183669    0.476635    -0.051347 
C    2.302628    -1.923784   0.219257  
C    3.577974    0.538425    -0.013127 
C    3.68095     -1.840121   0.245982  
H    1.786911    -2.869375   0.316836  
C    4.328624    -0.608179   0.136706  
H    4.040461    1.51166     -0.118353 
H    4.263272    -2.745511   0.360845  
H    5.408306    -0.55729    0.163536  
H    -0.656688   2.347784    -0.249642 
O    1.868341    2.796914    -0.393952 
C    -0.098547   1.44241     -0.483224 
H    -0.34636    0.512645    1.437553  
