33                                     
                                       
C    3.436776    -0.784614   1.127227  
C    2.261546    -0.116102   1.432538  
C    1.269782    0.044569    0.473825  
C    1.457641    -0.471755   -0.806283 
C    2.627358    -1.135745   -1.12347  
C    3.61886     -1.294307   -0.154214 
H    4.209633    -0.913886   1.872279  
H    2.118924    0.282812    2.429692  
C    -0.004363   0.789662    0.823188  
H    0.686496    -0.340336   -1.553779 
H    2.782487    -1.535032   -2.116355 
C    4.832182    -1.991182   -0.479178 
N    -0.000625   2.120123    0.234358  
H    -0.235176   3.409572    1.913842  
C    0.014771    3.611104    -1.209927 
N    0.093732    2.302561    -1.092261 
H    0.06506     4.097971    -2.170029 
N    -0.130559   4.279622    -0.039848 
C    -1.269733   0.018879    0.47419   
C    -2.372026   0.641114    -0.099625 
C    -1.338959   -1.335699   0.793836  
C    -3.528911   -0.077915   -0.353907 
H    -2.331773   1.689343    -0.363327 
C    -2.489785   -2.060546   0.548167  
H    -0.481217   -1.829828   1.233474  
C    -3.590438   -1.429686   -0.029891 
H    -4.385084   0.40398     -0.805694 
H    -2.543202   -3.111585   0.796703  
H    -0.007725   0.961895    1.902683  
C    -0.137985   3.309425    0.844088  
N    5.801033    -2.549074   -0.736934 
C    -4.788113   -2.177312   -0.292613 
N    -5.745016   -2.775268   -0.50063  
