27                                     
                                       
C    -2.807195   1.441192    0.546596  
C    -1.743627   0.740169    -0.003264 
C    -1.821142   -0.625009   -0.232944 
C    -2.966221   -1.344665   0.077247  
C    -4.031346   -0.650553   0.628383  
C    -3.952591   0.727311    0.860727  
H    -2.730772   2.506722    0.719427  
C    -0.415503   1.257735    -0.432339 
C    -0.547577   -1.121234   -0.823655 
H    -3.011417   -2.409763   -0.109039 
H    -4.941175   -1.17737    0.885442  
H    -4.803088   1.238535    1.292827  
O    -0.312407   -2.258373   -1.128244 
H    2.481896    1.716101    -1.279683 
H    0.536298    0.244247    -2.05551  
C    0.395807    0.072133    -0.982973 
C    1.74901     -0.055188   -0.321358 
C    3.953141    0.861086    0.025642  
C    2.043802    -1.075157   0.576363  
C    4.24367     -0.159961   0.921164  
H    4.693884    1.618947    -0.193888 
C    3.287161    -1.12528    1.193718  
H    1.314647    -1.84632    0.785948  
H    5.212617    -0.203242   1.401142  
H    3.506462    -1.926822   1.887064  
O    -0.045963   2.396541    -0.369762 
C    2.713877    0.913026    -0.591586 
