24                                     
                                       
C    -2.369778   1.169112    -0.248408 
C    -0.982572   1.188097    -0.250149 
C    -0.254293   0.026841    -0.00784  
C    -0.954635   -1.157364   0.224692  
C    -2.337307   -1.168482   0.231354  
C    -3.070743   -0.005649   -0.001875 
H    -2.916055   2.082675    -0.451398 
H    -0.47027    2.115384    -0.472779 
C    1.229298    0.021545    -0.001586 
H    -0.393791   -2.065813   0.396739  
H    -2.863191   -2.097775   0.419303  
C    -4.573363   -0.030655   0.022834  
N    1.829229    -1.146426   -0.24685  
C    3.155046    -1.1926     -0.254136 
C    3.964555    -0.090693   -0.019717 
H    3.932824    2.0057      0.45863   
H    3.595793    -2.162407   -0.46006  
H    5.041269    -0.185364   -0.041708 
H    1.459636    2.104389    0.503436  
C    1.96457     1.178876    0.265615  
C    3.346235    1.119651    0.251416  
H    -4.961229   -0.852734   -0.580033 
H    -4.941035   -0.171325   1.041418  
H    -4.990622   0.900185    -0.35879  
