28                                     
                                       
C    1.301079    0.877826    0.142188  
C    -0.08054    0.994036    0.158333  
C    -0.91665    -0.105153   -0.014551 
C    -0.324638   -1.355137   -0.1969   
C    1.047811    -1.487088   -0.222524 
C    1.877102    -0.375382   -0.055835 
H    1.927736    1.741907    0.285726  
H    -0.504331   1.973608    0.338084  
C    -2.393787   0.017234    -0.001746 
H    -0.960769   -2.220872   -0.318052 
H    1.490587    -2.465291   -0.374266 
N    3.262764    -0.598128   -0.091473 
N    -3.086676   -1.091767   0.2724    
C    -4.411415   -1.02615    0.297744  
C    -5.128825   0.135809    0.054553  
H    -4.927326   2.214039    -0.460618 
H    -4.928888   -1.951883   0.526709  
H    -6.209208   0.132836    0.092522  
H    -2.457439   2.104371    -0.540357 
C    -3.033352   1.227861    -0.279813 
C    -4.414609   1.285033    -0.245882 
C    4.283368    0.309866    0.028251  
H    3.5359      -1.559537   -0.211571 
O    4.115721    1.499416    0.16961   
C    5.666298    -0.303052   0.002505  
H    5.99787     -0.451264   1.03124   
H    5.702617    -1.259245   -0.517555 
H    6.343814    0.401041    -0.473167 
