24                                     
                                       
C    -2.893649   0.897253    -0.663903 
C    -1.506085   0.881511    -0.667011 
C    -0.806946   -0.147406   -0.040585 
C    -1.525594   -1.169436   0.577682  
C    -2.910822   -1.147408   0.593351  
C    -3.599611   -0.112438   -0.026217 
H    -3.423037   1.696637    -1.166103 
H    -0.964341   1.661663    -1.185481 
C    0.679434    -0.212295   -0.055368 
H    -0.980483   -1.982799   1.037943  
H    -3.455729   -1.94247    1.085785  
H    -4.681773   -0.097699   -0.018767 
N    1.186117    -1.424203   -0.299335 
C    2.867967    0.71088     0.138229  
C    2.500892    -1.579228   -0.350017 
C    3.39134     -0.535865   -0.151703 
H    3.528966    1.546983    0.336963  
H    2.857777    -2.582667   -0.555593 
H    4.458571    -0.701687   -0.204411 
C    1.492721    0.905665    0.198432  
C    0.957231    2.261673    0.573183  
H    0.767618    2.878075    -0.307792 
H    0.023193    2.186329    1.127535  
H    1.685152    2.789619    1.188827  
