20                                     
                                       
C    2.794962    -1.201475   -3.5e-05  
C    1.409237    -1.203516   -1.2e-05  
C    0.706127    -1e-06      -0.00016  
C    1.409234    1.203514    -0.000323 
C    2.79496     1.201475    -0.000346 
C    3.491241    1e-06       -0.000203 
H    3.333716    -2.140143   7.8e-05   
H    0.856431    -2.132401   0.000116  
C    -0.778323   -4e-06      -0.000149 
H    0.856429    2.1324      -0.000435 
H    3.333712    2.140144    -0.000479 
H    4.573756    2e-06       -0.000221 
N    -1.396913   1.183713    -9.4e-05  
C    -2.721713   1.173852    0.00015   
C    -3.456824   -1e-06      0.00043   
H    -3.211755   -2.142177   0.00067   
H    -3.211753   2.142176    0.00014   
H    -4.536819   7e-06       0.000629  
C    -2.721721   -1.17385    0.000449  
N    -1.396915   -1.183712   0.000194  
