18                                     
                                       
C    -0.586593   1.307106    -4e-06    
C    0.79634     1.421338    0         
C    1.606344    0.291108    6e-06     
C    1.013923    -0.97138    9e-06     
C    -0.362308   -1.100678   8e-06     
C    -1.151545   0.043392    1e-06     
H    -1.216611   2.185372    -1e-05    
H    1.249921    2.405775    -1e-06    
C    3.071887    0.445217    6e-06     
H    1.652593    -1.844857   1.4e-05   
H    -0.826821   -2.076876   1.3e-05   
Br   -3.037133   -0.132143   -1e-06    
N    3.859306    -0.53864    -4e-05    
H    3.44173     1.480483    4.3e-05   
H    5.727161    -0.747494   0.877258  
C    5.27943     -0.277819   5e-06     
H    5.72724     -0.747497   -0.877197 
H    5.524443    0.790878    2.7e-05   
