20                                     
                                       
C    -1.694953   -1.33155    0.08455   
C    -0.379605   -0.883981   0.120694  
C    -0.131569   0.486499    0.025892  
C    -1.180823   1.389367    -0.098716 
C    -2.487133   0.932265    -0.136709 
C    -2.742      -0.431044   -0.045561 
H    -1.89866    -2.393462   0.156271  
C    0.781356    -1.826481   0.292736  
C    1.265527    1.021408    0.073259  
H    -0.943949   2.443464    -0.160633 
H    -3.305567   1.632702    -0.236956 
H    -3.761275   -0.794309   -0.077553 
O    1.50794     2.205442    0.188822  
N    2.250222    0.081597    -0.005742 
C    2.008134    -1.288697   -0.424603 
H    2.886858    -1.882837   -0.177178 
H    1.85749     -1.34558    -1.5088   
H    3.179879    0.464202    -0.085966 
H    1.008294    -1.928844   1.358358  
H    0.528251    -2.816773   -0.087186 
