24                                     
                                       
C    0.596811    1.238329    0.401389  
C    1.98065     1.293579    0.417785  
C    2.730688    0.181232    0.055467  
C    2.085391    -0.993418   -0.32529  
C    0.70591     -1.047408   -0.340325 
C    -0.059626   0.067155    0.022276  
H    0.016826    2.099174    0.708286  
H    2.486149    2.20363     0.721497  
C    4.207789    0.253857    0.076756  
H    2.686033    -1.847077   -0.612599 
H    0.204754    -1.952446   -0.659419 
C    -1.538266   0.003318    0.003419  
O    4.937994    -0.65323    -0.22152  
H    4.620968    1.230938    0.395952  
C    -2.206358   -1.148165   0.420593  
C    -3.591243   -1.207511   0.405351  
C    -4.331556   -0.117917   -0.032115 
C    -3.677583   1.032159    -0.452089 
C    -2.292845   1.092806    -0.432336 
H    -1.635438   -1.993555   0.783967  
H    -4.093809   -2.10498    0.741903  
H    -5.412522   -0.164902   -0.046147 
H    -4.24738    1.882685    -0.803158 
H    -1.788103   1.984274    -0.783405 
