27                                     
                                       
C    0.018       1.295142    0.232217  
C    1.398893    1.396591    0.256627  
C    2.198662    0.276949    0.047543  
C    1.590586    -0.954245   -0.192991 
C    0.213243    -1.056915   -0.211512 
C    -0.592973   0.064177    0.006475  
H    -0.605469   2.164763    0.386334  
H    1.8656      2.357661    0.440767  
C    3.664656    0.414285    0.076593  
H    2.218511    -1.817336   -0.370419 
H    -0.240381   -2.01602    -0.425403 
C    -2.074063   -0.030631   -0.002989 
N    4.447378    -0.557853   -0.102727 
C    -4.115083   -1.262307   0.249747  
C    -2.732253   -1.230071   0.275941  
C    5.868246    -0.30669    -0.053095 
H    -5.889088   -0.077651   -0.079857 
H    -4.643755   -2.181764   0.46658   
H    -2.169801   -2.116616   0.532095  
N    -2.746594   1.091476    -0.272799 
C    -4.072036   1.049594    -0.293375 
H    4.04258     1.429202    0.266752  
C    -4.808735   -0.100221   -0.046868 
H    -4.574045   1.98418     -0.520337 
H    6.313595    -0.930606   0.723642  
H    6.316974    -0.608219   -1.001013 
H    6.116931    0.743085    0.143662  
