25                                     
                                       
C    0.593837    1.008761    -0.009367 
C    -0.774948   1.237742    -0.001481 
C    -1.693948   0.196235    -0.001474 
C    -1.217505   -1.115531   -0.009885 
C    0.13714     -1.360458   -0.017797 
C    1.057456    -0.304535   -0.017345 
H    1.293337    1.827646    -0.010416 
H    -1.133562   2.260903    0.004668  
C    -3.135072   0.487547    0.007014  
H    -1.930633   -1.929282   -0.009998 
H    0.500707    -2.382083   -0.024241 
N    2.417739    -0.648053   -0.025679 
N    -4.017697   -0.413558   0.007524  
O    3.449298    1.384554    -0.012983 
C    3.514146    0.177134    -0.010358 
C    -5.403743   -0.009261   0.016287  
C    4.837751    -0.553128   0.044994  
H    5.139649    -0.645535   1.089408  
H    4.794761    -1.548615   -0.39483  
H    5.581777    0.046606    -0.472042 
H    2.607313    -1.636767   -0.023778 
H    -3.40296    1.554072    0.013047  
H    -5.903171   -0.425161   -0.860441 
H    -5.894431   -0.433156   0.894128  
H    -5.538155   1.079196    0.021918  
