20                                     
                                       
C    -2.557151   -1.223648   2.6e-05   
C    -1.170297   -1.181733   -1e-06    
C    -0.515423   0.046017    -3.2e-05  
C    -1.250578   1.229068    -2.6e-05  
C    -2.633788   1.181322    3e-06     
C    -3.289057   -0.044885   3.1e-05   
H    -3.066741   -2.178223   4.7e-05   
H    -0.590418   -2.09421    -8e-06    
C    0.954412    0.113991    -7.1e-05  
H    -0.718596   2.171096    -5e-05    
H    -3.204307   2.100842    1e-06     
H    -4.370903   -0.08026    5.4e-05   
N    1.647656    1.171478    7.1e-05   
C    3.05151     0.763868    -7e-06    
C    3.006622    -0.778298   9.4e-05   
O    1.603788    -1.080211   -0.000114 
H    3.55301     1.168452    0.879919  
H    3.55286     1.168355    -0.880067 
H    3.451704    -1.224383   0.888394  
H    3.451998    -1.224541   -0.887975 
