18                                    
                                      
C    -2.69812    -1.222576   8.9e-05  
C    -1.314519   -1.145074   6.6e-05  
C    -0.678274   0.094368    -2e-06   
C    -1.44861    1.257227    -4.4e-05 
C    -2.830879   1.175721    -2.1e-05 
C    -3.460432   -0.062712   4.6e-05  
H    -3.181298   -2.190768   0.000144 
H    -0.729629   -2.057354   0.000104 
C    0.787445    0.211223    -3e-05   
H    -0.944298   2.213827    -9.7e-05 
H    -3.420966   2.082937    -5.5e-05 
H    -4.540856   -0.123714   6.6e-05  
N    1.424609    1.343801    -2.8e-05 
C    2.775821    1.154754    -5.7e-05 
C    3.189383    -0.138696   -5.9e-05 
S    1.830452    -1.172999   -2.2e-05 
H    3.431171    2.013245    0.000512 
H    4.195502    -0.522214   -4.2e-05 
