21                                     
                                       
C    1.751954    -1.04008    -0.09532  
C    0.375506    -1.131491   -0.111658 
C    -0.395135   0.027456    -0.003297 
C    0.21298     1.273978    0.103387  
C    1.594261    1.35056     0.110657  
C    2.371744    0.202029    0.017182  
H    2.369781    -1.924839   -0.179667 
H    -0.097535   -2.095933   -0.228353 
N    -1.802738   -0.054136   -0.004496 
H    -0.405367   2.155619    0.17731   
H    2.07729     2.317521    0.194931  
C    3.845871    0.304638    0.030841  
N    -2.543792   1.050875    -0.193497 
C    -3.794349   0.646095    -0.129042 
C    -2.579685   -1.154104   0.185741  
H    -2.156486   -2.123102   0.380023  
H    -4.763592   -1.347074   0.220457  
H    -4.59249    1.359074    -0.258376 
C    -3.881234   -0.742139   0.110927  
O    4.592808    -0.634508   -0.044314 
H    4.240167    1.335977    0.117629  
