 14                                    
                                       
  C   -0.527575    0.208966    0.000156
  C    -1.98629    0.464965    0.000362
  O   -2.826993   -0.393616   -0.000041
  C   -0.043027   -1.097277    0.000097
  C    1.321699   -1.321914   -0.000092
  C    2.204043   -0.244782   -0.000241
  H   -2.271359     1.53534    0.000194
  C    1.723803    1.057282   -0.000188
  C    0.354908    1.282816    0.000019
  H     3.27161   -0.424068   -0.000396
  H    1.705171   -2.333828   -0.000121
  H   -0.753123   -1.914535    0.000203
  H   -0.035144    2.294731     0.00008
  H    2.413426    1.890958   -0.000307
