 19                                    
                                       
  C    1.557661   -0.212858   -0.000008
  C    2.895252   -0.838106    0.000008
  O    3.931754   -0.227919    0.000128
  C    1.420358    1.171697    0.000144
  C    0.153691    1.713256    0.000102
  C   -0.987362    0.910153     -0.0001
  H     2.89149    -1.94579   -0.000121
  C   -0.856785   -0.486495   -0.000198
  C    0.428559   -1.017189   -0.000163
  H     0.02033    2.790094    0.000195
  H    2.304014    1.795167     0.00028
  H    0.519756   -2.097416   -0.000259
  O   -1.852449   -1.404175   -0.000393
  C     -3.2243   -1.040936    0.000526
  H    -3.76432   -1.984469    0.000617
  H   -3.483912   -0.468725    0.889905
  H   -3.485007   -0.468261   -0.888226
  O   -2.227878    1.475688   -0.000245
  H   -2.136216    2.433524   -0.000192
