 16                                    
                                       
  C    0.992533   -0.339526   -0.000045
  C     2.42655   -0.724994   -0.000085
  H    2.613841   -1.816857    0.000224
  O    3.339073     0.05433    0.000082
  C    0.638999    1.000088   -0.000099
  O   -1.030432    2.649297   -0.000128
  C   -0.709195    1.332124    -0.00007
  C   -1.683427    0.340223    0.000012
  C   -1.309831   -0.997028    0.000067
  O   -2.310842   -1.914566    0.000146
  C    0.033513   -1.347136    0.000041
  H   -1.986472    2.756914   -0.000082
  H   -2.738194    0.587832    0.000033
  H   -1.940352   -2.802358    0.000176
  H    0.334828   -2.389251    0.000085
  H    1.399106    1.768741   -0.000165
