 20                                    
                                       
  C   -0.151677    1.878927   -0.000079
  C   -0.301183    3.358275   -0.000075
  H    0.648533    3.925672   -0.000321
  O   -1.360984    3.918567    0.000174
  C   -1.285056    1.064827   -0.000104
  C    1.112118    1.316591   -0.000018
  C    1.252261   -0.067608    0.000059
  C    2.640012   -0.649675    0.000015
  F    3.331285   -0.252246   -1.074513
  F     3.33189    -0.25097    1.073697
  F    2.627912   -1.982263    0.000804
  C    0.137816   -0.882054    0.000032
  C   -1.131608   -0.304837    -0.00005
  C   -2.324695   -1.223435   -0.000015
  F   -2.320187   -2.020893    1.074621
  F   -3.475898   -0.554034   -0.000493
  F   -2.319694   -2.021638    -1.07407
  H    1.991436    1.951822    0.000004
  H    0.246653   -1.958908    0.000084
  H   -2.264441    1.525196    -0.00016
