 13                                    
                                       
  C    0.516926    0.211313    0.000009
  C    1.982168    0.471518    0.000019
  H    2.268319    1.540692           0
  O    2.813401   -0.392777    0.000009
  C   -0.379196    1.268782   -0.000027
  C    0.024311   -1.087265    0.000032
  C    -1.34942   -1.263859    0.000026
  N   -2.220499   -0.254991   -0.000019
  C   -1.738791    0.982187   -0.000044
  H    0.707486   -1.926033    0.000054
  H   -1.775327   -2.260811    0.000034
  H   -2.469952    1.782793   -0.000073
  H   -0.030229    2.294455   -0.000043
