 16                                    
                                       
  C   -0.701258   -0.194467    0.003429
  C   -1.525629   -1.437071    0.023848
  H    -0.99644   -2.399888    0.089464
  O   -2.726774   -1.421841   -0.018522
  C    0.701278   -0.194424   -0.003765
  O    2.726798   -1.421789     0.01938
  C    1.525695   -1.437002   -0.024315
  C    1.387045    1.019423    -0.00519
  C    0.696044    2.216516   -0.002195
  C    -0.69613    2.216481    0.002246
  C   -1.387078    1.019359      0.0051
  H    0.996608   -2.399772   -0.091437
  H    2.468649    0.994856   -0.012054
  H    1.238039    3.153133   -0.004638
  H   -1.238175     3.15307    0.004801
  H    -2.46868    0.994759     0.01205
