 23                                    
                                       
  C    -1.53262    1.509413   -0.000214
  C   -0.157286    1.581766   -0.000458
  C    0.625698    0.423866   -0.000408
  C   -0.006441   -0.812357   -0.000127
  C    -1.39716   -0.885436    0.000105
  C   -2.167801    0.268441    0.000074
  H    -2.13978    2.404575   -0.000244
  H    0.323549    2.553711   -0.000687
  N    2.025022    0.590099   -0.000633
  H    0.581232   -1.715382   -0.000134
  H   -1.859116   -1.861967    0.000301
  O   -3.526498    0.292311    0.000274
  C    4.406302    0.199654    0.000901
  C    3.002063   -0.367375   -0.000442
  C    -4.19853   -0.945532    0.000888
  O    2.782306   -1.558062   -0.000782
  H    4.569729    0.824244   -0.878391
  H    5.110655   -0.626038   -0.006147
  H    4.572267    0.810801    0.889154
  H    2.341419    1.546124   -0.000433
  H   -5.260769   -0.716154    0.001187
  H   -3.952768   -1.529347    0.892363
  H   -3.953398   -1.529901   -0.890398
