23                                     
                                       
C    -1.702128   -1.051515   -0.000557 
C    -0.340235   -1.320266   -0.001318 
C    0.600326    -0.298341   -0.001348 
C    0.156903    1.02693     -0.000672 
C    -1.198365   1.29417     8.6e-05   
C    -2.138895   0.267583    0.000176  
H    -2.400093   -1.87573    -0.000537 
H    -0.009134   -2.352829   -0.001864 
N    1.961356    -0.666085   -0.002072 
H    0.872797    1.832039    -0.000794 
H    -1.554679   2.315751    0.00062   
O    -3.443962   0.645607    0.000966  
C    3.064833    0.14033     -0.000558 
C    4.387286    -0.595655   0.003368  
C    -4.416901   -0.37183    0.001062  
O    3.02049     1.350906    -0.001313 
H    4.290246    -1.679624   -0.023172 
H    4.934792    -0.305082   0.899     
H    4.96355     -0.263255   -0.858663 
H    2.134125    -1.657095   -0.00203  
H    -5.38196    0.127728    0.001738  
H    -4.333706   -1.000271   0.892461  
H    -4.3346     -0.999585   -0.890903 
