21                                     
                                       
C    -1.75139    -1.111492   -0.004626 
C    -0.398488   -1.359421   -0.012923 
C    0.522172    -0.301123   -0.014194 
C    0.063174    1.016433    -0.00755  
C    -1.303498   1.247987    0.000805  
C    -2.21755    0.202978    0.002456  
H    -2.469893   -1.921152   -0.003367 
H    -0.033877   -2.380343   -0.018332 
N    1.877916    -0.644703   -0.022805 
H    0.766246    1.832026    -0.00985  
H    -1.665719   2.270173    0.005984  
C    -3.665339   0.485271    0.011457  
C    2.97986     0.180824    -0.009218 
O    -4.524309   -0.357336   0.013572  
H    2.068498    -1.633883   -0.021771 
O    2.91447     1.386466    -0.010543 
H    -3.929419   1.561043    0.016425  
C    4.294318    -0.565046   0.033585  
H    4.462444    -0.943898   1.043195  
H    4.304064    -1.409414   -0.655716 
H    5.091399    0.126863    -0.219926 
