23                                     
                                       
C    -2.299246   1.382583    -0.448773 
C    -0.996843   0.915513    -0.53092  
C    -0.690941   -0.374257   -0.110623 
C    -1.699777   -1.194101   0.384826  
C    -2.997738   -0.718924   0.48707   
C    -3.299062   0.570164    0.06967   
H    -2.535098   2.382027    -0.790147 
H    -0.224633   1.547328    -0.94516  
C    0.667657    -0.985848   -0.237673 
H    -1.449266   -2.204338   0.680212  
H    -3.775996   -1.357003   0.884627  
H    -4.313732   0.940135    0.141375  
O    0.80952     -2.166718   -0.467986 
N    1.777907    -0.161473   -0.133006 
C    3.067124    -0.807174   0.040227  
H    3.156883    -1.591268   -0.704495 
H    3.15562     -1.243762   1.037746  
H    3.853028    -0.070762   -0.111968 
O    1.612071    0.933382    0.7153    
C    2.156289    2.103987    0.137042  
H    3.24675     2.055733    0.089913  
H    1.761883    2.266743    -0.867671 
H    1.861705    2.920516    0.793036  
