61                                     
                                       
C    -4.203559   -2.742999   0.108861  
C    -3.660733   -1.458315   0.03939   
C    -4.423457   -0.386123   0.516748  
C    -5.6974     -0.613856   1.0271    
C    -6.226595   -1.89203    1.073551  
C    -5.472366   -2.963015   0.615746  
H    -3.616906   -3.574041   -0.262582 
C    -2.297423   -1.296399   -0.526073 
C    -3.895443   1.032525    0.505289  
H    -6.269174   0.220907    1.41153   
H    -7.219078   -2.051671   1.473386  
H    -5.872714   -3.967757   0.650291  
N    -4.336734   1.842213    1.612491  
C    1.673444    -0.962446   -2.182305 
N    2.681331    -0.69014    -1.179325 
C    3.485982    -1.657883   -0.619059 
C    4.303075    -0.920585   0.424627  
N    3.840455    0.466067    0.368754  
C    2.941765    0.527436    -0.528602 
O    3.49657     -2.829772   -0.911097 
C    5.815751    -1.018197   0.203877  
C    6.415941    -0.600588   1.555729  
C    5.324453    -0.902104   2.612658  
C    4.145861    -1.503098   1.83297   
C    2.186116    1.751056    -0.928112 
C    2.558721    2.978723    -0.111717 
C    1.774401    4.212836    -0.538719 
C    2.142464    5.443147    0.280091  
C    0.030597    -1.951799   -0.557363 
C    -0.765197   -0.309378   -2.108773 
C    0.281326    -1.069951   -1.605794 
H    -1.42756    -2.747819   0.792846  
H    0.840711    -2.556181   -0.164165 
H    -0.583971   0.37771     -2.927858 
H    -2.852613   0.173709    -1.986939 
H    1.963584    -1.910343   -2.640526 
H    1.705858    -0.190338   -2.952122 
H    6.145899    -0.396599   -0.627799 
H    6.046218    -2.059935   -0.029411 
H    7.345404    -1.132152   1.755861  
H    6.643878    0.464087    1.547935  
H    5.012854    0.02054     3.099736  
H    5.673594    -1.580958   3.389654  
H    4.23438     -2.588523   1.749733  
H    3.173243    -1.266437   2.264087  
H    2.365299    1.934753    -1.993827 
H    1.115187    1.537651    -0.838359 
H    2.384624    2.770112    0.946399  
H    3.631262    3.16212     -0.207464 
H    1.955576    4.409745    -1.599779 
H    0.702727    4.013695    -0.442543 
H    1.575188    6.31896     -0.035241 
H    1.943022    5.277097    1.340257  
H    3.20398     5.674823    0.176055  
C    -1.242491   -2.064211   -0.0268   
C    -2.043898   -0.419082   -1.577899 
C    -4.892759   2.839732    1.075019  
H    -5.336073   3.67912     1.592732  
H    -2.799906   1.026273    0.486026  
N    -4.894011   2.80309     -0.378759 
N    -4.320828   1.761521    -0.714844 
