23                                     
                                       
H    -2.25618    2.164976    0.011001  
C    -2.771902   1.213873    0.006128  
C    -4.152506   1.144533    0.005794  
C    -4.757439   -0.105266   -0.000521 
N    -4.074757   -1.247351   -0.006321 
C    -2.752186   -1.176732   -0.005982 
C    -2.038644   0.027336    0.000116  
H    -2.210311   -2.115999   -0.01083  
H    -5.838127   -0.193229   -0.000941 
H    -4.755581   2.042139    0.010368  
C    0.591503    0.018732    7e-05     
C    2.020035    0.009085    3.4e-05   
C    2.717521    -1.202155   0.005688  
C    4.102135    -1.207916   0.005659  
C    4.80658     -0.01094    -1.1e-05  
C    4.119545    1.195958    -0.005661 
C    2.73489     1.20999     -0.005647 
H    2.162169    -2.130444   0.010139  
H    4.633939    -2.150304   0.010118  
H    5.888634    -0.018704   -3.1e-05  
H    4.66491     2.130591    -0.010151 
H    2.193281    2.146375    -0.010098 
C    -0.612771   0.026178    0.00011   
