14                                     
                                       
H    0.229971    -2.391918   -7.1e-05  
C    0.780634    -1.460894   -5.6e-05  
C    2.165593    -1.439372   -8.1e-05  
C    2.798766    -0.207385   -5.9e-05  
N    2.146713    0.950114    -1.7e-05  
C    0.814278    0.953262    6e-06     
C    0.108406    -0.253643   -1.1e-05  
C    0.12738     2.284191    5.4e-05   
H    3.881151    -0.143766   -7.6e-05  
H    2.737335    -2.356956   -0.000116 
H    0.878538    3.068949    2.3e-05   
H    -0.513181   2.390345    0.877252  
H    -0.513276   2.390362    -0.877072 
Br   -1.785654   -0.253279   3e-05     
