21                                     
                                       
H    -1.825533   -1.929722   1.306185  
C    -2.087485   -1.060404   0.717658  
C    -3.33565    -0.460505   0.797733  
C    -3.592394   0.64877     0.00822   
N    -2.699698   1.169189    -0.832283 
C    -1.508937   0.595597    -0.909456 
C    -1.164237   -0.517421   -0.151294 
H    -0.787399   1.027297    -1.593994 
H    -4.557604   1.140503    0.046363  
H    -4.096106   -0.847653   1.461976  
C    1.206311    -0.466282   -0.100563 
C    2.383554    -1.123983   -0.464016 
C    3.571235    -0.464571   -0.237973 
C    3.550625    0.807755    0.330491  
C    2.323644    1.355299    0.646966  
N    1.16235     0.728846    0.437563  
H    2.334712    -2.109863   -0.902997 
H    4.510086    -0.933435   -0.503232 
H    4.462035    1.355844    0.520598  
H    2.252856    2.341231    1.091757  
O    0.048549    -1.151996   -0.311277 
