18                                     
                                       
H    -1.113971   2.474676    -0.004317 
C    -1.071317   1.391802    0.000399  
C    -2.235209   0.631812    -0.053298 
C    -2.13907    -0.752712   -0.044686 
N    -0.982186   -1.416151   0.009861  
C    0.115224    -0.677877   0.052677  
C    0.132853    0.718183    0.052358  
C    1.548344    1.222933    0.134906  
C    1.516423    -1.226094   0.128981  
H    -3.03582    -1.36103    -0.087031 
C    2.377462    -0.014694   -0.271808 
H    1.653599    -2.095074   -0.512461 
H    1.725021    -1.540746   1.15602   
H    2.507636    -0.012699   -1.355378 
H    3.366948    -0.024879   0.181572  
H    1.734867    2.086892    -0.502995 
H    1.775921    1.522461    1.162554  
H    -3.207152   1.103332    -0.104167 
