26                                     
                                       
H    -4.330298   -2.835621   -0.641606 
C    -4.160594   -1.808691   -0.344694 
C    -5.207398   -1.018187   0.100437  
C    -4.928757   0.296806    0.445233  
N    -3.71536    0.829283    0.383514  
C    -2.702901   0.064216    -0.029256 
C    -2.890814   -1.263028   -0.415246 
H    -6.215418   -1.401974   0.172797  
H    -5.720088   0.95392     0.789354  
C    -1.364651   0.708318    -0.075336 
C    -1.26524    2.093801    -0.189478 
C    -0.026604   2.709528    -0.24439  
C    1.137933    1.958163    -0.177839 
C    1.031673    0.583839    -0.051643 
S    2.532213    -0.410569   0.055778  
F    3.845298    -1.281346   0.147396  
F    3.197585    0.59413     1.089347  
F    3.210425    0.377595    -1.144534 
F    1.966168    -1.483761   -0.971793 
F    1.952944    -1.266509   1.262055  
C    -0.198354   -0.047595   0.000971  
H    -2.175839   2.674982    -0.232307 
H    0.039164    3.784945    -0.34045  
H    2.10636     2.435101    -0.219085 
H    -0.245761   -1.119655   0.125799  
H    -2.063528   -1.851565   -0.78635  
