35                                     
                                       
H    5.6645      -2.857298   -1.108932 
C    5.139648    -2.016047   -0.674909 
C    5.839594    -0.972405   -0.08954  
C    5.117851    0.081649    0.452982  
N    3.79291     0.142083    0.433851  
C    3.125807    -0.860512   -0.135206 
C    3.757082    -1.966638   -0.696696 
H    6.920065    -0.970776   -0.048992 
H    5.628598    0.912438    0.92714   
O    2.256879    2.122934    -1.180002 
C    1.702188    1.773351    -0.177408 
O    1.560047    2.533892    0.90991   
C    2.229873    3.792141    0.8511    
C    0.985805    0.466323    -0.031983 
C    -0.390318   0.472972    0.107119  
C    -1.094289   -0.726257   0.107408  
C    -2.561002   -0.771763   0.248985  
C    -3.181638   -1.772913   0.997988  
N    -4.495235   -1.870279   1.154795  
C    -5.268797   -0.96341    0.574843  
C    -4.745918   0.078117    -0.181285 
Cl   -5.809739   1.225822    -0.910846 
C    -3.379093   0.179553    -0.352994 
C    -0.34769    -1.893366   -0.049497 
N    0.971928    -1.914354   -0.145185 
C    1.643323    -0.765212   -0.11809  
H    2.039141    4.275574    1.804084  
H    1.842845    4.391606    0.028397  
H    3.297617    3.633946    0.704503  
H    -0.91174    1.416218    0.222274  
H    -2.580247   -2.516952   1.509247  
H    -6.340272   -1.055817   0.708318  
H    -2.963918   0.972053    -0.962528 
H    -0.848815   -2.854157   -0.109405 
H    3.160605    -2.756053   -1.130106 
