21                                     
                                       
H    3.455376    2.011559    0.476205  
C    2.872473    1.125285    0.260096  
C    3.495461    -0.079227   -0.024836 
C    2.690976    -1.182679   -0.270241 
N    1.365015    -1.142673   -0.260239 
C    0.761082    0.020118    -0.002011 
C    1.490281    1.178072    0.276211  
H    4.572565    -0.168834   -0.049117 
H    3.135948    -2.148053   -0.487303 
C    -0.723809   0.018602    -0.005358 
C    -1.452534   1.180237    -0.255677 
C    -2.839201   1.159637    -0.249081 
C    -3.51683    -0.022944   0.010669  
C    -2.79871    -1.186641   0.253711  
C    -1.413522   -1.167865   0.24098   
H    -0.938203   2.10448     -0.48566  
H    -3.390769   2.067798    -0.454914 
H    -4.598973   -0.039048   0.017669  
H    -3.321108   -2.113272   0.453756  
H    -0.844787   -2.06992    0.419998  
H    0.980839    2.098439    0.524261  
