30                                     
                                       
H    -1.155816   0.284781    -1.609145 
C    -1.810884   0.161419    -0.753327 
C    -2.740679   1.142891    -0.430276 
C    -3.539165   0.915455    0.686694  
N    -3.458016   -0.166719   1.454206  
C    -2.558561   -1.085075   1.128374  
C    -1.712117   -0.976489   0.029816  
C    -0.741733   -2.084887   -0.295756 
H    2.375603    0.688439    2.280915  
C    1.304262    -0.891025   -0.489591 
N    3.397784    0.202603    -0.868775 
C    2.388155    -0.53249    -1.293667 
C    3.398352    0.634568    0.397881  
C    1.289198    -0.446091   0.821658  
H    4.48487     1.777752    1.864127  
H    4.654634    2.351196    0.195259  
H    5.496385    0.896446    0.705781  
H    -0.388664   -2.563318   0.624085  
H    -1.236657   -2.848689   -0.896581 
H    -2.502488   -1.956437   1.775877  
H    -4.280323   1.653957    0.977462  
H    -3.662871   3.036385    -0.854631 
H    -3.112501   2.159788    -2.285131 
H    -1.942187   2.961637    -1.244281 
H    0.470554    -0.670859   1.491214  
C    2.358667    0.324798    1.261849  
H    2.40915     -0.875903   -2.322971 
C    4.573389    1.464791    0.825066  
O    0.350851    -1.660623   -1.081449 
C    -2.874697   2.395239    -1.24679  
