35                                     
                                       
H    -2.963578   1.046582    -0.965199 
C    -3.415875   0.255817    -0.380018 
C    -4.790123   0.169218    -0.270008 
C    -5.357729   -0.868406   0.458781  
N    -4.62152    -1.785718   1.070206  
C    -3.301253   -1.703197   0.971796  
C    -2.636998   -0.707361   0.254275  
O    1.356839    2.79519     -0.338032 
H    -6.435037   -0.948616   0.544243  
H    -2.732536   -2.456012   1.507091  
C    -1.164701   -0.674203   0.176217  
C    1.637838    1.812226    0.288306  
O    2.543217    1.776888    1.268154  
C    3.34698     2.947642    1.383665  
C    0.928175    0.503657    0.14422   
C    -0.453204   0.518953    0.217119  
C    -0.417909   -1.846536   0.061034  
N    0.9006      -1.871688   -0.049912 
C    1.576495    -0.724055   -0.02897  
C    3.039771    -0.820139   -0.273362 
N    3.623838    0.238713    -0.833018 
C    4.92234     0.171953    -1.096801 
C    5.700872    -0.941899   -0.813346 
C    5.087525    -2.041485   -0.233292 
C    3.731559    -1.987288   0.03749   
H    3.893096    3.108596    0.454001  
H    4.032026    2.759554    2.204567  
H    2.72703     3.818703    1.589623  
H    -0.963609   1.467677    0.335498  
H    -0.919238   -2.808256   0.023116  
H    5.361342    1.047578    -1.562538 
H    6.756339    -0.943239   -1.048086 
H    5.657862    -2.930802   0.002083  
H    3.199739    -2.820281   0.473518  
Cl   -5.808052   1.330786    -1.040733 
