34                                     
                                       
H    1.237326    -1.512742   0.882843  
C    2.124711    -1.061001   0.453732  
C    3.119698    -1.829029   -0.123821 
C    4.233762    -1.187436   -0.653302 
N    4.394919    0.130293    -0.634317 
C    3.430105    0.855694    -0.074797 
C    2.276098    0.322274    0.485102  
H    3.58299     1.932038    -0.068156 
H    5.031194    -1.761633   -1.112562 
H    3.043231    -2.907234   -0.163483 
N    0.010168    1.260372    0.248873  
C    0.122767    1.965216    -1.013833 
C    -0.994321   0.381547    0.52687   
O    -1.970029   0.445369    -0.391023 
C    -3.161332   -0.381374   -0.265585 
C    -2.79196    -1.857569   -0.324964 
C    -3.918832   -0.028926   1.007131  
C    -3.971031   0.011516    -1.49228  
O    -1.000253   -0.351719   1.493916  
H    1.587977    2.226076    1.180016  
H    0.913126    0.84562     2.057266  
H    0.709201    1.396069    -1.741275 
H    0.625241    2.917249    -0.837243 
H    -0.862582   2.157198    -1.423471 
H    -2.181879   -2.054323   -1.208099 
H    -3.704857   -2.449995   -0.401792 
H    -2.246023   -2.163703   0.56346   
H    -3.358781   -0.320081   1.892002  
H    -4.87781    -0.549179   1.006758  
H    -4.112385   1.044313    1.041526  
H    -4.200735   1.077143    -1.469984 
H    -4.906492   -0.547526   -1.514042 
H    -3.41139    -0.206467   -2.402289 
C    1.206886    1.207975    1.074662  
