17                                     
                                       
H    3.410078    2.100745    0.000295  
C    3.065177    1.073319    3e-04     
C    3.942193    0.02955     0.000456  
C    3.427816    -1.288449   0.000453  
N    2.155208    -1.579579   0.000313  
C    1.269046    -0.548811   0.00016   
C    1.678044    0.806831    0.000145  
H    5.011712    0.188497    0.00058   
H    4.114806    -2.12915    0.000574  
C    -0.112543   -0.85839    1.6e-05   
C    0.694376    1.82359     -1.8e-05  
Br   -2.876244   -0.244677   -0.000306 
C    -1.02495    0.153962    -0.000133 
C    -0.633908   1.510968    -0.000154 
H    -1.389521   2.283715    -0.000278 
H    -0.405919   -1.898639   3.1e-05   
H    1.009419    2.860151    -3.1e-05  
