24                                     
                                       
H    2.401489    -2.631138   0.4125    
C    2.772949    -1.626047   0.249774  
C    4.109579    -1.364707   0.191655  
C    4.532904    -0.031701   -0.02277  
N    3.719835    0.979506    -0.168464 
C    2.384373    0.734327    -0.112164 
C    1.854231    -0.562862   0.093234  
H    4.845039    -2.149363   0.305196  
H    5.594611    0.18993     -0.07252  
C    1.486951    1.818318    -0.263426 
C    0.454103    -0.7428     0.143288  
C    0.139847    1.6138      -0.214074 
C    -0.404324   0.316378    -0.011765 
C    -1.865502   0.132952    0.024924  
C    -2.517939   -0.978654   -0.432561 
S    -4.206897   -0.860754   -0.23793  
C    -4.077238   0.689659    0.466398  
C    -2.783354   1.098453    0.541024  
H    1.908486    2.801577    -0.425259 
H    -0.536945   2.447586    -0.35239  
H    -2.083055   -1.844206   -0.905993 
H    -4.958882   1.213118    0.797894  
H    -2.481561   2.041533    0.973659  
H    0.062847    -1.73622    0.331822  
