39                                     
                                       
H    1.897502    0.294292    -2.830512 
C    1.887827    -0.433939   -2.027613 
C    2.985379    -0.544276   -1.177331 
C    2.907621    -1.501982   -0.170053 
N    1.844704    -2.269416   0.051277  
C    0.810445    -2.138926   -0.769241 
C    0.790931    -1.254401   -1.841462 
H    -0.076303   -1.211343   -2.486637 
O    -0.958879   -3.569931   -1.402997 
H    3.745629    -1.640307   0.506487  
C    -0.41144    -2.983204   -0.517661 
O    -0.905086   -3.055466   0.735225  
C    -0.540486   -2.111242   1.75908   
C    -1.481622   -2.383147   2.916157  
C    -0.654912   -0.694751   1.239402  
C    0.409179    0.190223    1.374503  
C    0.349159    1.442745    0.791535  
C    1.523221    2.378606    0.862561  
F    2.608225    1.793473    1.378007  
F    1.858711    2.827124    -0.356923 
F    1.259126    3.456374    1.608424  
C    -0.77992    1.850161    0.092848  
C    -1.848042   0.97766     -0.011311 
C    -3.067569   1.361047    -0.804971 
F    -4.19339    0.999552    -0.182601 
F    -3.132069   2.67638     -1.0239   
F    -3.073809   0.759678    -2.002034 
C    -1.789192   -0.291486   0.549977  
H    0.49062     -2.299172   2.055494  
H    -1.245895   -1.720133   3.74835   
H    -1.377774   -3.416984   3.241885  
H    -2.514953   -2.213482   2.613279  
H    1.307607    -0.124285   1.889402  
H    -0.819081   2.827605    -0.369497 
H    -2.616547   -0.980003   0.417806  
H    3.924055    1.377826    -1.320101 
H    4.690024    0.124416    -2.293137 
H    4.917957    0.143508    -0.54164  
C    4.198556    0.322563    -1.339205 
