21                                     
                                       
H    0.965455    2.014769    0.770606  
C    1.480168    1.128868    0.418606  
C    2.863022    1.077795    0.399625  
C    3.478494    -0.089299   -0.030409 
N    2.802713    -1.160756   -0.434291 
C    1.477494    -1.097161   -0.414698 
C    0.750107    0.017908    0.006356  
H    3.457849    1.921754    0.721535  
H    4.559894    -0.166915   -0.051838 
H    0.950771    -1.976614   -0.771746 
C    -1.434941   -1.130131   0.388821  
C    -2.821451   -1.136838   0.385852  
C    -3.524409   -0.00404    -0.000219 
C    -2.831371   1.136027    -0.383627 
C    -1.445135   1.142262    -0.381247 
H    -0.892748   -2.008995   0.714936  
H    -3.354251   -2.027202   0.693662  
H    -4.606477   -0.009422   -0.002236 
H    -3.371947   2.021075    -0.693283 
H    -0.910068   2.026605    -0.705113 
C    -0.728223   0.00965     0.004859  
