54                                     
                                       
H    -2.212092   -0.417942   -2.446401 
C    -3.096928   -0.368007   -1.828086 
C    -4.200987   0.363574    -2.223286 
C    -5.285232   0.407319    -1.362946 
N    -5.324047   -0.226341   -0.195834 
C    -4.270095   -0.944053   0.194607  
C    -3.116302   -1.032577   -0.607359 
H    -4.218772   0.896599    -3.163463 
H    -6.168848   0.982208    -1.619038 
O    -1.813571   -2.352728   0.904756  
O    -0.881995   -1.627133   -0.999813 
C    0.39332     -2.115013   -0.590068 
C    1.344508    -0.995205   -0.186944 
C    2.683571    -1.668246   0.145928  
N    3.676633    -0.708854   0.58113   
C    4.544366    -0.221426   -0.349002 
O    5.257643    0.818811    0.124057  
C    6.264054    1.333321    -0.757459 
C    7.514225    0.481753    -0.721779 
O    4.677992    -0.671512   -1.464984 
C    3.285846    0.025987    1.773754  
C    1.98848     0.777022    1.508448  
C    0.861462    -0.147499   1.008145  
C    -0.363983   0.704735    0.741977  
C    -1.408041   0.742302    1.661451  
C    -2.516735   1.557629    1.469019  
C    -2.565187   2.344477    0.337534  
F    -3.636172   3.124297    0.126863  
C    -1.541709   2.350811    -0.591331 
C    -0.44567    1.529618    -0.379366 
C    -4.405833   -1.607583   1.532642  
H    0.800024    -2.645771   -1.451467 
H    0.261385    -2.819558   0.231522  
H    1.51333     -0.344439   -1.051147 
H    3.072932    -2.198894   -0.719814 
H    2.534809    -2.389204   0.957303  
H    6.457186    2.339385    -0.389295 
H    5.855498    1.389684    -1.76544  
H    7.899044    0.409962    0.295546  
H    8.28397     0.929458    -1.351435 
H    7.300422    -0.518245   -1.095864 
H    4.084885    0.700302    2.063851  
H    3.144429    -0.700994   2.579516  
H    2.178115    1.547862    0.754656  
H    1.652945    1.289017    2.412831  
H    0.61112     -0.846979   1.815967  
H    -1.366569   0.102073    2.535141  
H    -3.342419   1.573882    2.168057  
H    -1.618303   2.985014    -1.464222 
H    0.35499     1.53227     -1.109126 
H    -4.254978   -2.683717   1.460591  
H    -5.397705   -1.390422   1.920018  
H    -3.644713   -1.241761   2.223206  
C    -1.903762   -1.75087    -0.132956 
