29                                     
                                       
C    2.720446    -1.515899   -0.692763 
C    1.49119     -0.873898   -0.668607 
C    1.363233    0.369818    -0.058148 
C    2.477498    0.973174    0.51353   
C    3.701641    0.322054    0.507975  
C    3.824655    -0.922655   -0.095304 
H    2.818036    -2.476586   -1.181421 
H    0.628208    -1.328993   -1.140427 
C    0.078847    1.149071    -0.097444 
H    2.371175    1.95873     0.947804  
H    4.563783    0.790369    0.964655  
H    4.782635    -1.426171   -0.108646 
O    0.103237    2.331036    -0.384767 
C    -1.201505   -0.725921   0.957529  
C    -2.347768   1.180858    -0.044379 
C    -2.192142   -1.705135   0.340592  
H    -1.566023   -0.429504   1.950964  
H    -0.224256   -1.178006   1.093656  
C    -3.378704   0.255273    -0.680447 
H    -2.709851   1.530508    0.931585  
H    -2.155765   2.056006    -0.658339 
C    -3.544134   -1.027965   0.129372  
H    -2.29266    -2.576198   0.990607  
H    -1.798493   -2.053217   -0.619075 
H    -4.330564   0.782357    -0.765748 
H    -3.04901    0.009921    -1.693834 
H    -4.240507   -1.707038   -0.364852 
H    -3.975562   -0.783882   1.106143  
N    -1.086656   0.472967    0.136233  
