33                                     
                                       
C    3.240434    -1.543588   -0.669803 
C    2.12817     -1.058268   0.023576  
C    1.692721    0.231484    -0.283453 
C    2.364176    0.999231    -1.233508 
C    3.470327    0.501597    -1.891819 
C    3.910162    -0.786252   -1.610527 
H    3.586291    -2.546662   -0.445687 
C    1.511213    -1.998777   1.041982  
N    0.537806    0.812071    0.337796  
H    2.005895    1.999477    -1.43291  
H    3.984057    1.111595    -2.622717 
H    4.772493    -1.194907   -2.120652 
H    -1.343465   2.812305    1.00269   
H    -1.059214   1.702236    2.334343  
H    -0.320878   3.327877    2.36004   
C    0.652346    1.998723    1.04272   
O    1.698018    2.600761    1.113754  
C    -0.684343   0.078376    0.281197  
C    -1.711936   0.491291    -0.552795 
C    -0.808826   -1.060239   1.0745    
C    -2.890388   -0.236915   -0.577744 
H    -1.590115   1.367245    -1.175813 
C    -1.996989   -1.777668   1.018172  
C    -3.043612   -1.371419   0.202596  
H    -2.112096   -2.665785   1.627813  
H    -3.97019    -1.927269   0.166632  
Cl   -4.184823   0.278488    -1.607229 
C    -0.601467   2.487834    1.732435  
C    0.366252    -1.472581   1.909352  
H    1.154434    -2.884012   0.506252  
H    2.314174    -2.34366    1.697677  
H    0.067275    -2.256419   2.605981  
H    0.715102    -0.623857   2.503359  
