35                                     
                                       
C    -3.87093    0.479615    -0.894264 
C    -2.525255   0.758444    -0.708644 
C    -1.746798   -0.088892   0.076241  
C    -2.314334   -1.217746   0.663611  
C    -3.656455   -1.490296   0.454102  
C    -4.442727   -0.64467    -0.317354 
H    -4.470639   1.142227    -1.504826 
H    -2.06861    1.617704    -1.180574 
N    -0.379767   0.183723    0.28803   
H    -1.697089   -1.871748   1.260394  
H    -4.09227    -2.37152    0.906599  
H    -5.491586   -0.86171    -0.468952 
O    0.499276    -1.960899   0.236963  
C    0.650214    -0.75704    0.180171  
C    1.862839    0.029024    -0.052302 
C    1.491951    1.323513    -0.105675 
N    0.110022    1.466938    0.02738   
C    -0.357107   2.460125    0.993822  
H    -1.444604   2.467047    0.998157  
H    0.008198    2.234656    2.000885  
H    -0.004318   3.440266    0.681491  
C    2.322952    2.549303    -0.261922 
H    1.876448    3.226829    -0.990517 
H    2.41685     3.085262    0.685192  
H    3.322091    2.285392    -0.598857 
C    3.210393    -0.5989     -0.238271 
H    3.939635    0.202746    -0.383392 
C    3.613095    -1.392863   1.007571  
H    4.602022    -1.833583   0.872293  
H    3.639137    -0.752775   1.890444  
H    2.89715     -2.196051   1.184118  
C    3.224948    -1.495666   -1.479784 
H    2.495541    -2.298241   -1.367352 
H    2.977024    -0.927538   -2.377303 
H    4.212306    -1.940102   -1.615191 
