26                                     
                                       
C    0.921459    -1.874276   -0.259648 
C    0.955       -0.504572   -0.070525 
C    2.175013    0.169738    0.036529  
C    3.379691    -0.504249   -0.025479 
C    3.359025    -1.88211    -0.198891 
C    2.141386    -2.544716   -0.31904  
H    -0.011985   -2.407192   -0.370971 
N    -0.128355   0.394717    -0.003551 
C    1.882564    1.603465    0.164989  
H    4.307893    0.046877    0.056667  
H    4.283293    -2.440449   -0.249147 
H    2.136125    -3.617052   -0.467609 
O    2.612548    2.54253     0.27762   
H    -1.250252   -1.469172   1.510613  
C    -1.948982   -0.974775   0.847934  
C    -1.499639   0.031362    -6.1e-05  
C    -2.39073    0.705823    -0.825401 
H    -2.030158   1.499507    -1.464337 
C    -3.291024   -1.321977   0.849964  
H    -3.639074   -2.105933   1.509534  
C    -3.733322   0.360972    -0.805229 
H    -4.427766   0.889239    -1.444918 
C    -4.185884   -0.655784   0.024083  
H    -5.233939   -0.923881   0.032081  
C    0.325708    1.701528    0.118568  
O    -0.334703   2.695277    0.183153  
