17                                     
                                       
P    -0.239422   2.049215    -6.8e-05  
C    -0.711981   0.332632    7.4e-05   
C    0.307454    -0.619391   9.5e-05   
C    -0.033189   -1.964291   0.000107  
N    -1.297589   -2.355435   -7.6e-05  
C    -2.263712   -1.449752   -0.000177 
C    -2.052974   -0.069306   -9e-06    
H    0.514977    2.397901    1.119582  
H    -1.371617   2.859717    -0.00012  
H    0.514998    2.39768     -1.119757 
Br   2.114852    -0.094528   -1e-06    
H    0.734094    -2.729363   0.000269  
H    -3.279332   -1.830236   -0.00039  
C    -3.220979   0.874641    0.000147  
H    -3.227272   1.511396    -0.886725 
H    -3.226951   1.511351    0.887053  
H    -4.151967   0.312668    0.000267  
