27                                     
                                       
P    -0.848737   -1.864204   1.366592  
C    -1.722701   -0.656757   0.391512  
C    -1.030996   0.41303     -0.178309 
C    -1.82259    1.369967    -0.817499 
N    -3.137525   1.291123    -0.919778 
C    -3.791153   0.253778    -0.39193  
C    -3.106687   -0.751088   0.292485  
H    0.122485    -1.282385   2.179298  
H    -0.212804   -2.877474   0.649922  
H    -1.766138   -2.505713   2.199073  
C    0.440343    0.527602    -0.107208 
H    -1.347328   2.230947    -1.276913 
Cl   3.581337    -1.745019   -1.033422 
H    -3.657987   -1.5674     0.741911  
C    2.615871    -0.441702   -0.461982 
C    1.231959    -0.525869   -0.565483 
C    -5.276608   0.22909     -0.557472 
C    1.032106    1.666452    0.430495  
C    2.412791    1.714016    0.507889  
F    2.98306     2.792281    1.026153  
C    3.225048    0.678079    0.079468  
H    0.790357    -1.372401   -1.077272 
H    -5.705587   1.139097    -0.138052 
H    -5.726541   -0.636415   -0.076419 
H    -5.522765   0.216658    -1.619592 
H    0.445403    2.497653    0.798361  
H    4.300063    0.757844    0.160258  
