24                                     
                                       
P    0.382659    2.415295    0.238452  
C    1.34996     0.936499    0.025513  
C    2.736758    1.01456     -0.030218 
C    3.418347    -0.189766   -0.123267 
N    2.808925    -1.367899   -0.149697 
C    1.481322    -1.444675   -0.093801 
C    0.683957    -0.28782    -0.015017 
H    -0.612916   2.265367    1.202136  
H    -0.244144   2.894134    -0.910811 
H    1.227944    3.441788    0.661707  
C    -0.790964   -0.324814   0.032295  
C    -1.589149   0.201531    -0.953    
H    4.500731    -0.203479   -0.173428 
H    3.273779    1.952906    0.005308  
S    -3.242333   0.055716    -0.571633 
C    -2.89383    -0.697535   0.917536  
C    -1.554948   -0.848809   1.114965  
C    0.869776    -2.810922   -0.121274 
H    -1.278343   0.588742    -1.912276 
H    -3.695849   -0.994576   1.574415  
H    -1.123037   -1.305833   1.993871  
H    -0.049521   -2.825392   -0.70546  
H    0.622592    -3.132804   0.892993  
H    1.586371    -3.515913   -0.533633 
