24                                     
                                       
P    0.271832    2.291587    -0.40495  
C    -0.636536   0.792908    -0.081815 
C    0.058638    -0.411926   0.065645  
C    -0.734669   -1.553532   0.183428  
N    -2.06004    -1.533863   0.186845  
C    -2.68586    -0.381405   0.070108  
C    -2.023835   0.835758    -0.081102 
H    -0.597766   3.220296    -0.977596 
H    1.320663    2.079071    -1.297645 
H    0.816359    2.917387    0.715283  
H    -2.589052   1.749297    -0.20646  
Cl   -4.398731   -0.39585    0.088887  
H    -0.26393    -2.5245     0.293263  
C    1.534316    -0.4654     0.084576  
C    2.226508    -1.249751   -0.837316 
C    3.613277    -1.261491   -0.833794 
C    4.317845    -0.497355   0.088226  
C    3.635503    0.272193    1.02033   
C    2.247372    0.287493    1.020919  
H    1.677528    -1.837799   -1.562663 
H    4.145703    -1.869099   -1.553183 
H    5.399409    -0.513941   0.08948   
H    4.1819      0.839687    1.761827  
H    1.715064    0.827342    1.797719  
