23                                     
                                       
P    3.31786     -0.630641   -4e-05    
C    -0.103022   1.566976    -5e-06    
C    1.242752    1.276895    -2.4e-05  
C    1.615878    -0.074864   4.7e-05   
N    0.817142    -1.108799   1e-04     
C    -0.513431   -0.854366   5.8e-05   
C    -1.018258   0.47884     1.5e-05   
H    3.596897    -1.417929   1.116136  
H    4.237658    0.418563    -0.000205 
H    3.596692    -1.418102   -1.116143 
C    -2.74985    -1.733419   -4e-05    
C    -1.404558   -1.953247   3.1e-05   
C    -0.583686   2.984349    2.1e-05   
H    1.983434    2.066046    -6.4e-05  
C    -3.260417   -0.414184   -5.2e-05  
C    -2.421396   0.663732    -1.8e-05  
H    -0.984288   -2.949682   5e-05     
H    -3.43662    -2.569184   -8.7e-05  
H    -4.331456   -0.261459   -9.1e-05  
H    -2.828844   1.665125    -1.8e-05  
H    -1.198002   3.181158    0.880097  
H    -1.198355   3.18112     -0.879811 
H    0.250914    3.681276    -0.000158 
