20                                     
                                       
P    -3.608193   -1.524559   0.000272  
C    -2.614245   -0.058418   0.000262  
C    -3.24256    1.160824    0.000413  
C    -2.430128   2.320355    0.000404  
N    -1.128172   2.280012    0.000265  
C    -0.495449   1.07971     0.000117  
C    -1.199056   -0.154376   0.000101  
H    -4.956901   -1.175107   0.000599  
H    -3.395085   -2.340912   1.113046  
H    -3.395551   -2.340626   -1.112802 
H    -4.320108   1.26251     0.000541  
H    -2.896825   3.298936    0.000514  
C    0.916666    1.076883    -2.3e-05  
C    -0.468365   -1.361952   -6.7e-05  
Br   3.466879    -0.139431   -0.000354 
C    1.59086     -0.111568   -0.000175 
C    0.897155    -1.344039   -0.000203 
H    1.460017    -2.267316   -0.00033  
H    -0.973765   -2.323032   -9.7e-05  
H    1.428292    2.02941     -4e-06    
