19                                     
                                       
P    2.352897    -1.149649   1.6e-05   
C    1.212953    0.213594    -3.7e-05  
C    1.545688    1.538761    -5.4e-05  
C    0.47668     2.475865    -6.6e-05  
N    -0.785271   2.141753    -5.9e-05  
C    -1.117328   0.827984    -3e-05    
C    -0.141109   -0.184786   -1.1e-05  
H    3.654942    -0.649906   -0.000176 
H    2.224087    -1.964851   -1.121279 
H    2.224319    -1.964559   1.121553  
H    2.569656    1.889016    -6.6e-05  
H    0.704888    3.535625    -8e-05    
C    -2.469539   0.413563    0         
N    -0.408546   -1.5086     5.2e-05   
C    -2.738927   -0.925161   5.6e-05   
C    -1.672819   -1.85772    8.5e-05   
H    -3.246794   1.166666    -1.9e-05  
H    -3.755977   -1.29137    8.1e-05   
H    -1.885447   -2.920556   0.00014   
