19                                     
                                       
P    2.534053    -2.07999    0         
N    -1.382719   -1.167374   0         
C    -0.281776   -1.868761   0         
C    0.968403    -1.21571    0         
N    1.124058    0.086158    0         
C    0           0.825338    0         
C    -1.277433   0.1793      0         
H    2.365459    -3.464617   0         
H    3.301098    -1.754065   1.118391  
H    3.301098    -1.754065   -1.118391 
H    -0.3646     -2.951043   0         
C    -1.069417   2.967051    0         
C    0.08139     2.238912    0         
C    -2.338918   2.328443    0         
C    -2.449023   0.968816    0         
H    1.059636    2.700001    0         
H    -1.025276   4.047901    0         
H    -3.231608   2.939869    0         
H    -3.405337   0.46405     0         
