24                                     
                                       
P    0.79759     2.224838    0.515055  
C    1.381119    0.603068    0.061672  
C    2.743249    0.327592    0.097967  
C    3.138725    -0.975444   -0.177319 
N    2.277682    -1.946206   -0.460431 
C    0.984296    -1.667302   -0.502522 
C    0.456943    -0.396726   -0.256788 
H    -0.295698   2.172533    1.376603  
H    0.439422    3.052852    -0.546901 
H    1.834172    2.884168    1.177279  
C    -0.970581   -0.091092   -0.345182 
C    -1.603682   0.911865    -1.063324 
C    -2.964242   0.757331    -0.750011 
N    -3.145884   -0.244113   0.093163  
N    -1.940589   -0.752715   0.331433  
C    -1.817485   -1.900201   1.215473  
H    -1.162556   1.572948    -1.791684 
H    -3.809707   1.320886    -1.108834 
H    -1.973084   -2.823974   0.659626  
H    -2.580763   -1.810558   1.982715  
H    -0.830485   -1.906995   1.672583  
H    0.317036    -2.483473   -0.758983 
H    4.188002    -1.244331   -0.160588 
H    3.481295    1.080061    0.343415  
