24                                     
                                       
P    -0.674764   2.166116    -0.401802 
C    -1.420738   0.588864    -0.050227 
C    -2.808074   0.479037    -0.023941 
C    -3.342964   -0.79029    0.145075  
N    -2.591152   -1.879632   0.260583  
C    -1.273182   -1.75774    0.234506  
C    -0.606803   -0.537104   0.09436   
H    -1.640387   2.994756    -0.974068 
H    0.379908    2.055183    -1.306006 
H    -0.182376   2.864177    0.699979  
H    -3.460619   1.333914    -0.145267 
H    -4.416373   -0.932935   0.175826  
H    -0.694001   -2.66877    0.343347  
C    0.866888    -0.439465   0.08964   
C    1.62096     -1.157577   -0.837679 
C    3.001419    -1.026743   -0.857955 
C    3.638727    -0.186872   0.047036  
C    2.896147    0.516638    0.985261  
C    1.513869    0.390593    1.008403  
H    1.123448    -1.806077   -1.548452 
H    3.581709    -1.582795   -1.582026 
H    4.716185    -0.09273    0.030303  
H    3.39331     1.143476    1.713478  
H    0.94122     0.88144     1.788956  
