57                                     
                                       
P    1.496625    -0.117334   2.665531  
C    2.896453    -0.116948   1.552236  
C    3.933797    0.738903    1.88406   
C    5.037818    0.758224    1.037335  
N    5.14383     -0.012609   -0.029181 
C    4.157845    -0.853514   -0.357776 
C    2.984483    -0.92536    0.415239  
H    1.876953    0.733093    3.706123  
H    1.243509    -1.339752   3.277743  
H    0.306958    0.403295    2.175218  
H    3.904553    1.381888    2.753048  
H    5.86675     1.427473    1.237632  
O    1.800824    -2.470914   -0.978412 
C    1.836623    -1.766471   -0.018394 
O    0.791915    -1.603423   0.829329  
C    -0.492491   -2.154168   0.449482  
C    -1.471112   -1.090958   -0.020794 
C    -2.811277   -1.814101   -0.235147 
N    -3.828618   -0.899085   -0.696764 
C    -4.472273   -0.175017   0.275924  
O    -5.229046   0.795649    -0.243573 
C    -6.049771   1.526775    0.686991  
C    -7.299368   0.751666    1.036946  
O    -4.365346   -0.400174   1.46138   
C    -3.514322   -0.314758   -1.993736 
C    -2.220404   0.482572    -1.882231 
C    -1.050399   -0.345436   -1.307693 
C    0.1422      0.574306    -1.129014 
C    1.237072    0.510746    -1.987454 
C    2.316675    1.377016    -1.854942 
C    2.29048     2.315235    -0.843566 
F    3.337597    3.130256    -0.677098 
C    1.204106    2.442701    0.005101  
C    0.133839    1.573727    -0.153515 
C    4.384618    -1.666431   -1.592202 
H    -0.872144   -2.647356   1.344351  
H    -0.317948   -2.904301   -0.320803 
H    -1.637651   -0.368137   0.786807  
H    -3.147495   -2.276557   0.690171  
H    -2.69249    -2.59557    -0.991928 
H    -6.284461   2.452055    0.165354  
H    -5.458397   1.749527    1.573915  
H    -7.865831   0.512133    0.137581  
H    -7.930987   1.352557    1.691543  
H    -7.044177   -0.170279   1.557272  
H    -4.33676    0.313562    -2.320205 
H    -3.408011   -1.132883   -2.710237 
H    -2.405281   1.343111    -1.231624 
H    -1.925046   0.878779    -2.85559  
H    -0.780056   -1.108973   -2.047409 
H    1.252084    -0.236921   -2.772111 
H    3.171189    1.329885    -2.517729 
H    1.196672    3.233172    0.745114  
H    -0.740789   1.70209     0.476608  
H    4.279657    -2.731763   -1.39244  
H    5.380825    -1.448416   -1.965047 
H    3.63981     -1.423512   -2.351723 
