53                                     
                                       
P    -4.266956   -3.65479    0.511502  
C    -2.756244   -3.029941   -0.181277 
C    -2.16093    -3.780621   -1.189336 
C    -0.984729   -3.273557   -1.715594 
N    -0.459743   -2.128044   -1.314348 
C    -1.033642   -1.396751   -0.351359 
C    -2.220179   -1.825333   0.286368  
H    -4.609052   -4.845217   -0.126832 
H    -5.355457   -2.793839   0.364271  
H    -4.200058   -3.939699   1.876184  
H    -2.578848   -4.70887    -1.555262 
H    -0.455851   -3.805593   -2.497741 
C    -0.389468   -0.088441   -0.058837 
C    -2.936129   -1.124799   1.424975  
Cl   -4.19563    4.534373    -0.27424  
C    -3.092149   3.208227    -0.224109 
C    -2.135898   3.070214    -1.218462 
C    -1.256233   1.999659    -1.165511 
C    -1.318973   1.074969    -0.128309 
C    -2.358801   0.191496    1.950346  
C    0.921466    0.027899    0.207915  
C    1.602492    1.355434    0.397169  
C    2.709028    1.502546    -0.664699 
N    3.622658    0.378435    -0.600723 
C    4.77073     0.543527    0.131593  
O    5.411463    -0.619669   0.328397  
C    6.68638     -0.524291   0.988244  
C    7.771008    -0.099861   0.024151  
O    5.163988    1.609522    0.540487  
C    2.990075    -0.915157   -0.776952 
C    1.893357    -1.117244   0.285362  
C    -2.289593   1.225394    0.863886  
C    -3.174927   2.29316     0.815315  
H    -2.084659   3.79343     -2.020419 
H    -0.506818   1.880747    -1.938613 
H    -2.9979     -1.826333   2.266585  
H    -3.965022   -0.918101   1.1014    
H    -1.365324   0.01437     2.365958  
H    -2.997195   0.534858    2.764132  
H    2.08466     1.380043    1.379219  
H    0.909728    2.191827    0.339398  
H    3.272034    2.417415    -0.506665 
H    2.261892    1.527938    -1.66225  
H    6.863614    -1.526143   1.37434   
H    6.598814    0.174251    1.818822  
H    8.734166    -0.094711   0.535056  
H    7.575602    0.903775    -0.350196 
H    7.830434    -0.792083   -0.815548 
H    3.738063    -1.697877   -0.713938 
H    2.534651    -0.946782   -1.770133 
H    2.376       -1.098847   1.267667  
H    1.423366    -2.087502   0.154842  
H    -3.920635   2.429712    1.588423  
