 14                                    
                                       
  C   -0.527764   -0.104698    0.000176
  C   -1.993465    0.123331    0.000454
  O   -2.794268   -0.774003    -0.00015
  C    0.370219    0.953292    0.000069
  C    1.738727    0.763479    -0.00017
  C    2.222873   -0.535151   -0.000312
  H   -2.319943    1.175369    0.000066
  C     1.34958   -1.619884   -0.000206
  C   -0.014902   -1.401669    0.000035
  F   -0.100238    2.208172    0.000201
  H    2.394526       1.623    -0.00025
  H    3.292168   -0.701817   -0.000505
  H    1.739521   -2.628397   -0.000314
  H   -0.721582   -2.221884    0.000116
