 17                                    
                                       
  C   -0.846035    0.533012    0.000207
  C   -0.503925    1.989835    0.000478
  O   -1.347519    2.845193   -0.000601
  C    0.117633   -0.480507    0.000035
  C   -0.268163   -1.811719   -0.000139
  C    -1.61635   -2.142062   -0.000092
  H    0.562561     2.25832    0.001467
  C   -2.579063   -1.143621     0.00007
  C   -2.192368    0.186174    0.000194
  C    1.588474   -0.144694   -0.000028
  F    1.933248    0.576866   -1.076069
  F    2.354802   -1.235661   -0.000918
  F    1.933678    0.575378    1.076889
  H    0.483021    -2.58832   -0.000333
  H   -1.911096   -3.183009   -0.000191
  H   -3.629623   -1.402012    0.000106
  H   -2.921481     0.98572    0.000289
