 17                                    
                                       
  C   -0.867604    -0.17664   -0.000016
  C   -2.176718   -0.868504   -0.000042
  O   -3.241317   -0.310793   -0.000091
  C    0.300897   -0.931172   -0.000016
  C    1.548695   -0.319861    0.000018
  C    1.592395    1.073103     0.00004
  H   -2.119177   -1.974888   -0.000191
  C    0.429895    1.834377    0.000037
  C   -0.806977    1.212879    0.000011
  C    2.819374    -1.12417    0.000066
  H    0.231737    -2.01479   -0.000047
  H    2.556654    1.569288    0.000058
  H    0.495115    2.914717    0.000048
  H     -1.7303    1.777615    0.000007
  H    2.609897    -2.19269   -0.000407
  H    3.423694   -0.896145   -0.879346
  H    3.423177   -0.896837    0.880016
