 30                                    
                                       
  C    3.379408   -0.346335   -0.012739
  C    4.463905   -1.343838    0.149494
  O    5.614925   -1.065431    0.349211
  C    2.082056   -0.789322   -0.235901
  C    1.066729    0.137069   -0.390872
  C    1.327125    1.496467   -0.330554
  H    4.140882   -2.400453    0.073133
  C    2.628768    1.928116   -0.101162
  C    3.656524     1.01558    0.058535
  O   -0.187936   -0.365971   -0.688302
  H    1.853059   -1.846653   -0.296426
  H    0.521285     2.20531     -0.4519
  H    2.831929    2.989475   -0.050666
  H    4.675846    1.332251    0.235658
  C   -1.261618    0.096002   -0.009854
  O   -1.224995    0.917707    0.859283
  O    -2.31433   -0.535507   -0.491542
  C   -3.647381   -0.260099    0.046045
  C   -4.014233    1.197121    -0.19235
  H   -5.061569    1.345523    0.073215
  H   -3.403838    1.865189    0.410375
  H   -3.890962    1.447346   -1.246986
  C   -3.701886   -0.637254    1.518967
  H   -4.733921   -0.565059    1.864243
  H   -3.367485   -1.666562     1.65522
  H   -3.084731    0.023846    2.122512
  C    -4.53296   -1.179725   -0.778579
  H   -5.571127   -1.067724   -0.466426
  H    -4.45517   -0.932934   -1.837328
  H    -4.23413   -2.218641   -0.639995
