 23                                    
                                       
  C   -1.834795    0.190233   -0.000322
  C   -3.312812    0.166033   -0.000327
  O   -3.978768   -0.835103    0.000079
  C   -1.165772    1.406583   -0.001137
  C    0.221397    1.439146   -0.001141
  C    0.959765    0.260316   -0.000343
  H   -3.793966    1.164088   -0.001243
  C    0.273747   -0.959284    0.000488
  C   -1.105978   -0.998514    0.000499
  C     2.47123    0.294573   -0.000177
  C      3.0414    -0.36304   -1.258434
  C    3.040764   -0.359405    1.260279
  H   -1.734279     2.33015   -0.001776
  H    0.739632    2.390572   -0.001791
  H     0.83316   -1.887247    0.001153
  H   -1.644462   -1.937797    0.001136
  H    2.771245     1.34573   -0.001632
  H    4.129215    -0.28118   -1.270361
  H    2.649274    0.105855   -2.161199
  H     2.78533   -1.423746   -1.290983
  H    2.784283   -1.419917     1.29589
  H    4.128602    -0.27786    1.272383
  H    2.648425    0.112321    2.161476
