 43                                    
                                       
  C   -5.080102   -1.093163   -0.308944
  C   -6.432655   -1.119051   -0.914616
  O   -7.263567   -1.954211   -0.681286
  C   -4.202383   -0.073684    -0.65835
  C   -2.939077   -0.050686   -0.098992
  C   -2.538381   -1.023811    0.801572
  H    -6.64232   -0.292962   -1.622012
  C   -3.424889   -2.035711    1.148703
  C   -4.694336   -2.075708    0.597586
  O   -2.062496    0.933691    -0.52456
  C   -1.467252    1.727943    0.405532
  O   -1.738711    1.704308    1.568152
  C   -0.401616    2.586586    -0.23813
  C    0.841941    1.726878   -0.395993
  C    1.437734    1.150774    0.697252
  C    2.600673    0.362153    0.567484
  C     3.16516    0.158952   -0.715084
  C    2.533372    0.758089   -1.828864
  C    1.405302    1.515553   -1.673282
  C    3.231172   -0.240995    1.688175
  C     4.35104   -0.995908    1.538009
  C    4.914016   -1.196799     0.25002
  C    4.335033   -0.632207   -0.854712
  O    6.026926   -1.967203    0.236709
  C    6.637701   -2.206709   -1.010895
  C   -0.144112    3.839294    0.592291
  H   -4.491266    0.696148   -1.364087
  H   -1.543217   -0.982398    1.223659
  H   -3.113844   -2.795569    1.853037
  H   -5.399663   -2.855773     0.85202
  H   -0.756492    2.854072    -1.23414
  H    1.012162    1.293323    1.685992
  H    2.955523    0.605905   -2.815027
  H    0.930783    1.962347   -2.538817
  H    2.804606   -0.088498    2.672307
  H    4.842776   -1.460885    2.382074
  H     4.74626   -0.772508    -1.84451
  H    7.501363   -2.835284     -0.8127
  H    5.955228   -2.726226   -1.688985
  H    6.964431   -1.271717   -1.474052
  H    0.642589    4.433029    0.128593
  H    -1.04625    4.445677    0.673076
  H    0.170042    3.567908    1.598875
