 27                                    
                                       
  C    1.576664     0.49069    -0.04193
  C    1.561022    1.960052   -0.231722
  O     2.44493    2.683767    0.152358
  C     0.52973   -0.311814   -0.520585
  C    0.570901   -1.689505   -0.308579
  C    1.648247   -2.248961    0.362021
  H    0.680435    2.371347   -0.748653
  C    2.691958   -1.462511    0.833541
  C    2.645836   -0.096394    0.626905
  O   -0.456943    0.323953   -1.193357
  C    -1.65118   -0.373859   -1.523847
  C   -2.536829    -0.61633   -0.313404
  C   -2.920686    0.672612    0.404404
  C    -3.83412    0.416719    1.595628
  H   -0.224229   -2.329233   -0.660959
  H    1.667422   -3.320396    0.516897
  H    3.524782   -1.913123    1.355202
  H    3.434333    0.557203    0.978486
  H   -1.411513   -1.302303   -2.048291
  H   -2.156794    0.284225   -2.230766
  H   -3.437479   -1.133795   -0.658186
  H   -2.039164   -1.289475     0.38981
  H   -2.012897    1.181844    0.736011
  H   -3.411818    1.346323   -0.303978
  H   -4.759636    -0.06996    1.281789
  H    -3.34785   -0.233881    2.324874
  H   -4.098745    1.345269    2.101155
