 15                                    
                                       
  C   -0.999752    0.212337   -0.000081
  C   -2.465811    0.369481   -0.000125
  O   -3.251123   -0.542206    0.000262
  C   -0.178932    1.336871   -0.000067
  C    1.197167    1.208984   -0.000034
  C    1.759783   -0.063581   -0.000013
  H   -2.820487     1.41905    0.000233
  C    0.947355    -1.19871    -0.00003
  C   -0.425167    -1.05685   -0.000056
  O    3.110881   -0.144323    0.000018
  H    -0.62803    2.324021    -0.00009
  H    1.851484    2.069815   -0.000021
  H    1.400273   -2.183834   -0.000024
  H   -1.076457    -1.92186   -0.000068
  H    3.387299   -1.066152    0.000169
