 14                                    
                                       
  C   -1.187469   -0.191523    0.000027
  C   -2.402505   -1.043861    0.000036
  O   -3.524188   -0.616401    0.000064
  C    0.061783   -0.798578           0
  C    1.197874    -0.00567   -0.000021
  C    1.098126    1.376809   -0.000017
  H   -2.209096   -2.133952     0.00007
  C   -0.158109    1.973536    0.000009
  C   -1.302117    1.195822    0.000032
 Cl    2.760584   -0.750713   -0.000058
  H    0.151421   -1.878167   -0.000004
  H    1.998188    1.976365   -0.000035
  H   -0.232304    3.052865    0.000012
  H   -2.290135    1.637022     0.00005
