 14                                    
                                       
  C   -2.260507   -0.230098    0.000159
  C   -3.322601   -1.267183    0.000298
  O    -4.49843   -1.025647    -0.00032
  C   -0.929255   -0.628272    0.000126
  C    0.068476    0.334937    0.000029
  C   -0.256425    1.683668   -0.000048
  H   -2.955969    -2.31174   -0.000291
  C    -1.59313    2.071403    -0.00002
  C    -2.59695    1.120438    0.000081
  I    2.073998   -0.250224   -0.000018
  H   -0.680231   -1.682553    0.000186
  H    0.526239    2.429897   -0.000134
  H   -1.839004    3.125071   -0.000075
  H   -3.643126    1.397027    0.000109
