 17                                    
                                       
  C   -1.750003   -0.186102    0.000014
  C   -2.897862   -1.127211    0.000017
  O   -4.047733   -0.783211   -0.000032
  C   -0.454598   -0.689734    0.000013
  C    0.616424    0.187572    0.000002
  C    0.401199    1.560006   -0.000002
  H   -2.623828   -2.199677    0.000069
  C   -0.894109    2.059195    0.000003
  C   -1.970445    1.187462    0.000008
  C     2.03305   -0.315333   -0.000004
  F    2.096864   -1.648899    -0.00005
  F    2.706609    0.116587    1.073864
  F    2.706622    0.116657   -1.073829
  H   -0.286181   -1.759794    0.000023
  H    1.248567     2.23442   -0.000008
  H   -1.058368    3.128184    0.000003
  H   -2.991114     1.54831    0.000005
