 14                                    
                                       
  C   -2.101076    0.207145    0.000152
  C   -3.579136    0.308618    0.000276
  O   -4.320959   -0.636001    -0.00003
  C   -1.332282    1.364029    0.000087
  C    0.052355    1.287983    0.000003
  C    0.650011    0.037232   -0.000012
  H    -3.97613    1.342182   -0.000132
  C   -0.103854   -1.131932    0.000054
  C   -1.482881   -1.040847    0.000131
 Br    2.536961    -0.08397   -0.000116
  H   -1.819106      2.3329    0.000104
  H     0.66093    2.181112   -0.000054
  H    0.390844   -2.093085    0.000054
  H    -2.10132   -1.929527    0.000184
