 15                                    
                                       
  C   -1.307076     0.20624   -0.000315
  C   -2.787861    0.333168   -0.000531
  O   -3.538948   -0.602317    0.000927
  C   -0.521328    1.352143    -0.00028
  C    0.859521    1.248957   -0.000156
  C    1.445295    -0.01459   -0.000045
  H   -3.169649    1.371795    0.000932
  C    0.659073   -1.169844   -0.000069
  C   -0.716528   -1.055158   -0.000202
  C    2.877999   -0.130975    0.000092
  N    4.021577   -0.223089    0.000202
  H   -0.993281    2.327818   -0.000363
  H     1.48573    2.130376    -0.00014
  H    1.137311   -2.139756    0.000019
  H   -1.354135   -1.929721   -0.000239
